Version 4
SHEET 1 7284 15764
WIRE 1632 3712 1568 3712
WIRE 1680 3712 1632 3712
WIRE 1856 3712 1744 3712
WIRE 1920 3712 1856 3712
WIRE 2496 3712 2416 3712
WIRE 2608 3712 2576 3712
WIRE 2672 3712 2608 3712
WIRE 2736 3712 2672 3712
WIRE 1568 3728 1568 3712
WIRE 1744 3728 1744 3712
WIRE 2416 3728 2416 3712
WIRE 1920 3744 1920 3712
WIRE 2736 3744 2736 3712
WIRE 2608 3824 2608 3712
WIRE 1920 3856 1920 3824
WIRE 2000 3856 1920 3856
WIRE 2048 3856 2000 3856
WIRE 2736 3856 2736 3824
WIRE 2816 3856 2736 3856
WIRE 2864 3856 2816 3856
WIRE 1920 3888 1920 3856
WIRE 2736 3888 2736 3856
WIRE 1744 4000 1744 3808
WIRE 1856 4000 1744 4000
WIRE 1920 4000 1920 3968
WIRE 1920 4000 1856 4000
WIRE 2416 4000 2416 3808
WIRE 2608 4000 2608 3888
WIRE 2608 4000 2416 4000
WIRE 2672 4000 2608 4000
WIRE 2736 4000 2736 3968
WIRE 2736 4000 2672 4000
WIRE 1744 4048 1744 4000
WIRE 2416 4048 2416 4000
WIRE 1264 4144 1184 4144
WIRE 1744 4144 1344 4144
WIRE 528 4160 448 4160
WIRE 1008 4160 608 4160
WIRE 2576 4160 2544 4160
WIRE 2720 4160 2576 4160
WIRE 1408 4224 1376 4224
WIRE 1744 4224 1744 4144
WIRE 1744 4224 1472 4224
WIRE 672 4240 640 4240
WIRE 1008 4240 1008 4160
WIRE 1008 4240 736 4240
WIRE 2720 4288 2720 4240
WIRE 2720 4288 2704 4288
WIRE 2576 4304 2528 4304
WIRE 1520 4320 1472 4320
WIRE 2816 4320 2704 4320
WIRE 3168 4320 2816 4320
WIRE 3408 4320 3296 4320
WIRE 3936 4320 3488 4320
WIRE 4016 4320 3936 4320
WIRE 784 4336 736 4336
WIRE 1744 4336 1744 4224
WIRE 1744 4336 1648 4336
WIRE 2080 4336 1744 4336
WIRE 2192 4336 2144 4336
WIRE 2368 4336 2272 4336
WIRE 2576 4336 2368 4336
WIRE 4016 4336 4016 4320
WIRE 1008 4352 1008 4240
WIRE 1008 4352 912 4352
WIRE 1056 4352 1008 4352
WIRE 1184 4352 1184 4144
WIRE 1184 4352 1136 4352
WIRE 1248 4352 1184 4352
WIRE 1376 4352 1376 4224
WIRE 1376 4352 1328 4352
WIRE 1520 4352 1376 4352
WIRE 2752 4352 2752 4240
WIRE 2752 4352 2704 4352
WIRE -48 4368 -128 4368
WIRE 128 4368 32 4368
WIRE 208 4368 128 4368
WIRE 320 4368 272 4368
WIRE 448 4368 448 4160
WIRE 448 4368 400 4368
WIRE 512 4368 448 4368
WIRE 640 4368 640 4240
WIRE 640 4368 592 4368
WIRE 784 4368 640 4368
WIRE 1680 4368 1648 4368
WIRE 944 4384 912 4384
WIRE 1184 4400 1184 4352
WIRE -128 4416 -128 4368
WIRE 448 4416 448 4368
WIRE 4016 4416 3936 4416
WIRE 128 4432 128 4368
WIRE 1680 4448 1680 4368
WIRE 944 4464 944 4384
WIRE 3936 4512 3296 4512
WIRE 4016 4512 4016 4496
WIRE 4016 4512 3936 4512
WIRE 2368 4544 2368 4336
WIRE 2576 4544 2368 4544
WIRE 2816 4544 2816 4320
WIRE 2816 4544 2656 4544
WIRE 1184 4576 1184 4464
WIRE -128 4592 -128 4496
WIRE 128 4592 128 4496
WIRE 448 4592 448 4480
WIRE 2816 4592 2816 4544
WIRE 2816 4592 2128 4592
WIRE 2576 4656 2544 4656
WIRE 2720 4656 2576 4656
WIRE 2720 4784 2720 4736
WIRE 2720 4784 2704 4784
WIRE 2576 4800 2528 4800
WIRE 2816 4816 2704 4816
WIRE 3168 4816 3168 4512
WIRE 3168 4816 2816 4816
WIRE 2128 4832 2128 4592
WIRE 2192 4832 2128 4832
WIRE 2320 4832 2256 4832
WIRE 2480 4832 2400 4832
WIRE 2576 4832 2480 4832
WIRE 2752 4848 2752 4736
WIRE 2752 4848 2704 4848
WIRE 2480 4960 2480 4832
WIRE 2592 4960 2480 4960
WIRE 2816 4960 2816 4816
WIRE 2816 4960 2672 4960
FLAG 2672 3712 VCC
FLAG 2672 4000 VEE
FLAG 2816 3856 VREF
FLAG 2416 4048 0
FLAG 2752 4656 VEE
FLAG 1856 3712 5P0V
FLAG 1856 4000 VEE
FLAG 2000 3856 2P5V
FLAG 1744 4048 0
FLAG -128 4592 0
FLAG 128 4592 0
FLAG 448 4592 0
FLAG 912 4320 5P0V
FLAG 944 4464 0
FLAG 3936 4320 Diff_P
FLAG 3936 4512 Diff_N
FLAG 3936 4416 0
FLAG 1184 4576 0
FLAG 1648 4304 5P0V
FLAG 1680 4448 0
FLAG 736 4336 2P5V
FLAG 1472 4320 2P5V
FLAG 2752 4160 VEE
FLAG 2576 4160 5P0V
FLAG 2576 4656 5P0V
FLAG 2528 4800 2P5V
FLAG 2528 4304 2P5V
FLAG 1568 3808 0
FLAG 1632 3712 5N0V
SYMBOL voltage 2416 3712 R0
WINDOW 123 0 0 Left 2
WINDOW 0 38 62 Left 2
WINDOW 39 0 0 Left 0
SYMATTR InstName Vcc2
SYMATTR Value 12
SYMBOL res 2720 3728 R0
SYMATTR InstName R7
SYMATTR Value 10k
SYMBOL res 2720 3872 R0
SYMATTR InstName R10
SYMATTR Value 10k
SYMBOL res 2288 4320 R90
WINDOW 0 0 56 VBottom 2
WINDOW 3 32 56 VTop 2
SYMATTR InstName R1
SYMATTR Value 10k
SYMBOL res 3504 4304 R90
WINDOW 0 0 56 VBottom 2
WINDOW 3 32 56 VTop 2
SYMATTR InstName R2
SYMATTR Value 100m
SYMBOL WE\\WE-PPTI_1006 3296 4320 M0
SYMATTR SpiceModel 760390013
SYMATTR InstName T1
SYMBOL res 2704 4144 R0
WINDOW 0 -45 44 Left 2
WINDOW 3 -37 79 Left 2
SYMATTR InstName R3
SYMATTR Value 20m
SYMBOL res 2736 4144 R0
SYMATTR InstName R4
SYMATTR Value 1m
SYMBOL res 2672 4528 R90
WINDOW 0 0 56 VBottom 2
WINDOW 3 -17 -4 VTop 2
SYMATTR InstName R17
SYMATTR Value 10k
SYMBOL res 2416 4816 R90
WINDOW 0 0 56 VBottom 2
WINDOW 3 32 56 VTop 2
SYMATTR InstName R18
SYMATTR Value 10k
SYMBOL res 2704 4640 R0
WINDOW 0 -45 44 Left 2
WINDOW 3 -37 79 Left 2
SYMATTR InstName R19
SYMATTR Value 1m
SYMBOL res 2736 4640 R0
SYMATTR InstName R20
SYMATTR Value 1m
SYMBOL res 2688 4944 R90
WINDOW 0 0 56 VBottom 2
WINDOW 3 32 56 VTop 2
SYMATTR InstName R21
SYMATTR Value 10k
SYMBOL cap 2144 4320 R90
WINDOW 0 0 32 VBottom 2
WINDOW 3 32 32 VTop 2
SYMATTR InstName C9
SYMATTR Value 1n
SYMBOL voltage 1744 3712 R0
WINDOW 123 0 0 Left 2
WINDOW 0 38 62 Left 2
SYMATTR InstName Vcc1
SYMATTR Value 5
SYMBOL res 1904 3728 R0
SYMATTR InstName R24
SYMATTR Value 10k
SYMBOL res 1904 3872 R0
SYMATTR InstName R25
SYMATTR Value 10k
SYMBOL cap 2592 3824 R0
SYMATTR InstName C11
SYMATTR Value 20u
SYMATTR SpiceLine Rser=5m
SYMBOL res 2592 3696 R90
WINDOW 0 0 56 VBottom 2
WINDOW 3 32 56 VTop 2
SYMATTR InstName R31
SYMATTR Value 100m
SYMBOL voltage -128 4400 R0
WINDOW 123 -91 81 Left 2
WINDOW 0 38 62 Left 2
WINDOW 39 0 0 Left 0
WINDOW 3 -656 -19 Left 2
SYMATTR Value2 AC 1
SYMATTR InstName Vcc4
SYMATTR Value PULSE(0 3.3 0 10n 10n {0.5/111.5k} {1/111.5k})
SYMBOL res 48 4352 R90
WINDOW 0 0 56 VBottom 2
WINDOW 3 32 56 VTop 2
SYMATTR InstName R28
SYMATTR Value 240
SYMBOL cap 112 4432 R0
SYMATTR InstName C2
SYMATTR Value 1n
SYMBOL cap 2256 4816 R90
WINDOW 0 0 32 VBottom 2
WINDOW 3 32 32 VTop 2
SYMATTR InstName C6
SYMATTR Value 1n
SYMBOL res 416 4352 R90
WINDOW 0 0 56 VBottom 2
WINDOW 3 32 56 VTop 2
SYMATTR InstName R48
SYMATTR Value 12k
SYMBOL cap 736 4224 R90
WINDOW 0 0 32 VBottom 2
WINDOW 3 32 32 VTop 2
SYMATTR InstName C19
SYMATTR Value 100p
SYMBOL AutoGenerated\\TLV365 848 4352 R0
SYMATTR InstName U9
SYMBOL cap 432 4416 R0
SYMATTR InstName C20
SYMATTR Value 470p
SYMBOL res 608 4352 R90
WINDOW 0 0 56 VBottom 2
WINDOW 3 32 56 VTop 2
SYMATTR InstName R59
SYMATTR Value 6.8k
SYMBOL res 624 4144 R90
WINDOW 0 0 56 VBottom 2
WINDOW 3 32 56 VTop 2
SYMATTR InstName R60
SYMATTR Value 12k
SYMBOL res 4000 4320 R0
SYMATTR InstName R5
SYMATTR Value 10k
SYMBOL res 4000 4400 R0
SYMATTR InstName R6
SYMATTR Value 10k
SYMBOL res 1152 4336 R90
WINDOW 0 0 56 VBottom 2
WINDOW 3 32 56 VTop 2
SYMATTR InstName R8
SYMATTR Value 1.5k
SYMBOL cap 1472 4208 R90
WINDOW 0 0 32 VBottom 2
WINDOW 3 32 32 VTop 2
SYMATTR InstName C1
SYMATTR Value 100p
SYMBOL AutoGenerated\\TLV365 1584 4336 R0
SYMATTR InstName U1
SYMBOL cap 1168 4400 R0
SYMATTR InstName C4
SYMATTR Value 10n
SYMBOL res 1344 4336 R90
WINDOW 0 0 56 VBottom 2
WINDOW 3 32 56 VTop 2
SYMATTR InstName R9
SYMATTR Value 820
SYMBOL res 1360 4128 R90
WINDOW 0 0 56 VBottom 2
WINDOW 3 32 56 VTop 2
SYMATTR InstName R11
SYMATTR Value 1.5k
SYMBOL AutoGenerated\\TLV365 2640 4320 R0
SYMATTR InstName U2
SYMBOL AutoGenerated\\TLV365 2640 4816 R0
SYMATTR InstName U3
SYMBOL cap 272 4352 R90
WINDOW 0 0 32 VBottom 2
WINDOW 3 32 32 VTop 2
SYMATTR InstName C3
SYMATTR Value 1n
SYMBOL voltage 1568 3712 R0
WINDOW 123 0 0 Left 2
WINDOW 0 38 62 Left 2
SYMATTR InstName Vcc3
SYMATTR Value -5
TEXT 1744 3600 Left 2 !.tran 0 1m 0.1m 10n
TEXT 1760 3528 Left 2 !;ac dec 1000 10 1Meg
