Version 4
SHEET 1 10720 13092
WIRE 1392 3536 1280 3536
WIRE 1456 3536 1392 3536
WIRE 1808 3536 1696 3536
WIRE 1872 3536 1808 3536
WIRE 2448 3536 2368 3536
WIRE 2560 3536 2528 3536
WIRE 2624 3536 2560 3536
WIRE 2688 3536 2624 3536
WIRE 1280 3552 1280 3536
WIRE 1696 3552 1696 3536
WIRE 2368 3552 2368 3536
WIRE 1456 3568 1456 3536
WIRE 1872 3568 1872 3536
WIRE 2688 3568 2688 3536
WIRE 2560 3648 2560 3536
WIRE 1872 3680 1872 3648
WIRE 1952 3680 1872 3680
WIRE 2000 3680 1952 3680
WIRE 1456 3712 1456 3648
WIRE 1872 3712 1872 3680
WIRE 2688 3712 2688 3648
WIRE 1280 3824 1280 3632
WIRE 1456 3824 1456 3792
WIRE 1456 3824 1280 3824
WIRE 1696 3824 1696 3632
WIRE 1808 3824 1696 3824
WIRE 1872 3824 1872 3792
WIRE 1872 3824 1808 3824
WIRE 2368 3824 2368 3632
WIRE 2560 3824 2560 3712
WIRE 2560 3824 2368 3824
WIRE 2624 3824 2560 3824
WIRE 2688 3824 2688 3792
WIRE 2688 3824 2624 3824
WIRE 1280 3872 1280 3824
WIRE 1696 3872 1696 3824
WIRE 2368 3872 2368 3824
WIRE 1312 4400 1232 4400
WIRE 1792 4400 1392 4400
WIRE 2880 4416 2816 4416
WIRE 2992 4416 2880 4416
WIRE 1456 4480 1424 4480
WIRE 1792 4480 1792 4400
WIRE 1792 4480 1520 4480
WIRE 2992 4544 2992 4496
WIRE 2992 4544 2976 4544
WIRE 2848 4560 2800 4560
WIRE 1568 4576 1520 4576
WIRE 3088 4576 2976 4576
WIRE 3152 4576 3088 4576
WIRE 3328 4576 3232 4576
WIRE 3440 4576 3328 4576
WIRE 3680 4576 3568 4576
WIRE 4288 4576 3760 4576
WIRE 1792 4592 1792 4480
WIRE 1792 4592 1696 4592
WIRE 2352 4592 1792 4592
WIRE 2464 4592 2416 4592
WIRE 2576 4592 2544 4592
WIRE 2640 4592 2576 4592
WIRE 2672 4592 2640 4592
WIRE 2848 4592 2752 4592
WIRE 736 4608 368 4608
WIRE 912 4608 816 4608
WIRE 1104 4608 912 4608
WIRE 1232 4608 1232 4400
WIRE 1232 4608 1184 4608
WIRE 1296 4608 1232 4608
WIRE 1424 4608 1424 4480
WIRE 1424 4608 1376 4608
WIRE 1568 4608 1424 4608
WIRE 3024 4608 3024 4496
WIRE 3024 4608 2976 4608
WIRE 1728 4624 1696 4624
WIRE 368 4656 368 4608
WIRE 1232 4656 1232 4608
WIRE 912 4672 912 4608
WIRE 4288 4672 4288 4576
WIRE 2576 4688 2576 4592
WIRE 1728 4704 1728 4624
WIRE 2752 4720 2752 4592
WIRE 2880 4720 2752 4720
WIRE 3088 4720 3088 4576
WIRE 3088 4720 2944 4720
WIRE 3936 4768 3568 4768
WIRE 2576 4800 2576 4752
WIRE 2640 4800 2640 4592
WIRE 2848 4800 2640 4800
WIRE 3088 4800 3088 4720
WIRE 3088 4800 2928 4800
WIRE 1360 4816 1360 4800
WIRE 1520 4816 1520 4576
WIRE 1520 4816 1360 4816
WIRE 4288 4816 4288 4752
WIRE 368 4832 368 4736
WIRE 912 4832 912 4736
WIRE 1232 4832 1232 4720
WIRE 1360 4832 1360 4816
WIRE 3088 4848 3088 4800
WIRE 3088 4848 2400 4848
WIRE 4288 4928 4288 4896
WIRE 3936 5024 3936 4768
WIRE 2992 5040 2992 4992
WIRE 2992 5040 2976 5040
WIRE 2848 5056 2800 5056
WIRE 4288 5056 4288 5024
WIRE 3088 5072 2976 5072
WIRE 3152 5072 3088 5072
WIRE 3344 5072 3232 5072
WIRE 3440 5072 3440 4768
WIRE 3440 5072 3344 5072
WIRE 2400 5088 2400 4848
WIRE 2464 5088 2400 5088
WIRE 2592 5088 2528 5088
WIRE 2752 5088 2672 5088
WIRE 2848 5088 2752 5088
WIRE 3024 5104 3024 4992
WIRE 3024 5104 2976 5104
WIRE 3888 5104 3856 5104
WIRE 3936 5168 3936 5120
WIRE 4288 5168 4288 5136
WIRE 2752 5216 2752 5088
WIRE 2864 5216 2752 5216
WIRE 3088 5216 3088 5072
WIRE 3088 5216 2944 5216
FLAG 2624 3536 VCC
FLAG 2624 3824 VEE
FLAG 2368 3872 0
FLAG 1808 3536 5P0V
FLAG 1808 3824 VEE
FLAG 1952 3680 2P5V
FLAG 1696 3872 0
FLAG 2880 4416 VCC
FLAG 3024 4416 VEE
FLAG 4288 5168 0
FLAG 3936 5168 0
FLAG 4160 5008 VCC
FLAG 3776 5104 VCC
FLAG 2800 4560 VREF
FLAG 2992 4912 VCC
FLAG 3024 4912 VEE
FLAG 2800 5056 VREF
FLAG 3088 4576 VOUT1
FLAG 3088 5072 VOUT2
FLAG 4288 4576 Coil_X
FLAG 2576 4800 0
FLAG 368 4832 0
FLAG 912 4832 0
FLAG 1232 4832 0
FLAG 1696 4560 5P0V
FLAG 1728 4704 0
FLAG 1360 4912 0
FLAG 1360 4720 5P0V
FLAG 3328 4576 Y_Coil_Sec1
FLAG 3344 5072 Y_Coil_Sec2
FLAG 1392 3536 5N0V
FLAG 1280 3872 0
DATAFLAG 1472 4816 ""
SYMBOL voltage 2368 3536 R0
WINDOW 123 0 0 Left 2
WINDOW 0 38 62 Left 2
SYMATTR InstName Vcc2
SYMATTR Value 14
SYMBOL res 2672 3552 R0
SYMATTR InstName R7
SYMATTR Value 10k
SYMBOL res 2672 3696 R0
SYMATTR InstName R10
SYMATTR Value 10k
SYMBOL voltage 1696 3536 R0
WINDOW 123 0 0 Left 2
WINDOW 0 38 62 Left 2
SYMATTR InstName Vcc1
SYMATTR Value 5
SYMBOL res 1856 3552 R0
SYMATTR InstName R24
SYMATTR Value 10k
SYMBOL res 1856 3696 R0
SYMATTR InstName R25
SYMATTR Value 10k
SYMBOL cap 2544 3648 R0
SYMATTR InstName C11
SYMATTR Value 20u
SYMATTR SpiceLine Rser=5m
SYMBOL res 2544 3520 R90
WINDOW 0 0 56 VBottom 2
WINDOW 3 32 56 VTop 2
SYMATTR InstName R31
SYMATTR Value 100m
SYMBOL res 2560 4576 R90
WINDOW 0 0 56 VBottom 2
WINDOW 3 -70 68 VTop 2
SYMATTR InstName R78
SYMATTR Value {wc(1.2k, tol_r,9)}
SYMBOL ind2 4272 4656 R0
SYMATTR InstName Coil_X
SYMATTR Value 15.718u
SYMATTR Type ind
SYMBOL res 3776 4560 R90
WINDOW 0 0 56 VBottom 2
WINDOW 3 32 56 VTop 2
SYMATTR InstName R79
SYMATTR Value 100m
SYMBOL WE\\WE-PPTI_1006 3568 4576 M0
SYMATTR SpiceModel 760390013
SYMATTR InstName T4
SYMBOL res 2976 4400 R0
WINDOW 0 -45 44 Left 2
WINDOW 3 -37 79 Left 2
SYMATTR InstName R80
SYMATTR Value 20m
SYMBOL res 3008 4400 R0
SYMATTR InstName R81
SYMATTR Value 1m
SYMBOL res 4272 4800 R0
SYMATTR InstName R82
SYMATTR Value 3
SYMBOL res 4272 5040 R0
SYMATTR InstName R83
SYMATTR Value 1
SYMBOL nmos 4240 4928 R0
SYMATTR InstName M7
SYMATTR Value BSH114
SYMBOL res 4256 4992 R90
WINDOW 0 0 56 VBottom 2
WINDOW 3 -49 62 VTop 2
SYMATTR InstName R84
SYMATTR Value 100
SYMBOL nmos 3888 5024 R0
SYMATTR InstName M8
SYMATTR Value BSH114
SYMBOL res 3872 5088 R90
WINDOW 0 0 56 VBottom 2
WINDOW 3 32 56 VTop 2
SYMATTR InstName R85
SYMATTR Value 100
SYMBOL res 2944 4784 R90
WINDOW 0 5 150 VBottom 2
WINDOW 3 -28 -4 VTop 2
SYMATTR InstName R86
SYMATTR Value {wc(5.6k, tol_r,1)}
SYMBOL res 2688 5072 R90
WINDOW 0 0 56 VBottom 2
WINDOW 3 32 56 VTop 2
SYMATTR InstName R87
SYMATTR Value 5.6k
SYMBOL res 2976 4896 R0
WINDOW 0 -45 44 Left 2
WINDOW 3 -37 79 Left 2
SYMATTR InstName R88
SYMATTR Value 1m
SYMBOL res 3008 4896 R0
SYMATTR InstName R89
SYMATTR Value 1m
SYMBOL res 2960 5200 R90
WINDOW 0 0 56 VBottom 2
WINDOW 3 32 56 VTop 2
SYMATTR InstName R90
SYMATTR Value 6.8k
SYMBOL res 3248 5056 R90
WINDOW 0 0 56 VBottom 2
WINDOW 3 32 56 VTop 2
SYMATTR InstName R91
SYMATTR Value 1m
SYMBOL res 3248 4560 R90
WINDOW 0 0 56 VBottom 2
WINDOW 3 32 56 VTop 2
SYMATTR InstName R92
SYMATTR Value 1m
SYMBOL cap 2416 4576 R90
WINDOW 0 0 32 VBottom 2
WINDOW 3 32 32 VTop 2
SYMATTR InstName C4
SYMATTR Value {wc(1n, tol_c,8)}
SYMBOL cap 2944 4704 R90
WINDOW 0 43 67 VBottom 2
WINDOW 3 -32 -1 VTop 2
SYMATTR InstName C25
SYMATTR Value {wc(100p, tol_c,12)}
SYMBOL res 2768 4576 R90
WINDOW 0 0 56 VBottom 2
WINDOW 3 -70 43 VTop 2
SYMATTR InstName R93
SYMATTR Value {wc(1.2k, tol_r,10)}
SYMBOL cap 2560 4688 R0
WINDOW 3 -228 54 Left 2
SYMATTR InstName C26
SYMATTR Value {wc(820p, tol_c,11)}
SYMBOL voltage 368 4640 R0
WINDOW 123 -91 81 Left 2
WINDOW 0 38 62 Left 2
WINDOW 39 0 0 Left 0
WINDOW 3 -306 48 Left 2
SYMATTR Value2 AC 1
SYMATTR InstName Vcc3
SYMATTR Value SINE(1.65 1.6 111.5k)
SYMBOL res 832 4592 R90
WINDOW 0 0 56 VBottom 2
WINDOW 3 -56 56 VTop 2
SYMATTR InstName R94
SYMATTR Value {wc(240, tol_r,1)}
SYMBOL cap 896 4672 R0
WINDOW 3 -186 69 Left 2
SYMATTR InstName C27
SYMATTR Value {wc(1n, tol_c,2)}
SYMBOL cap 2528 5072 R90
WINDOW 0 0 32 VBottom 2
WINDOW 3 -64 3 VTop 2
SYMATTR InstName C28
SYMATTR Value 1n
SYMBOL res 1200 4592 R90
WINDOW 0 0 56 VBottom 2
WINDOW 3 -59 103 VTop 2
SYMATTR InstName R112
SYMATTR Value {wc(5.6k, tol_r,3)}
SYMBOL cap 1520 4464 R90
WINDOW 0 0 32 VBottom 2
WINDOW 3 -26 -119 VTop 2
SYMATTR InstName C35
SYMATTR Value {wc(100p, tol_c,7)}
SYMBOL AutoGenerated\\TLV365 1632 4592 R0
SYMATTR InstName U18
SYMBOL cap 1216 4656 R0
WINDOW 3 -215 58 Left 2
SYMATTR InstName C36
SYMATTR Value {wc(270p, tol_c,4)}
SYMBOL res 1392 4592 R90
WINDOW 0 0 56 VBottom 2
WINDOW 3 32 56 VTop 2
SYMATTR InstName R113
SYMATTR Value {wc(3.3k, tol_r,5)}
SYMBOL res 1408 4384 R90
WINDOW 0 0 56 VBottom 2
WINDOW 3 -25 -96 VTop 2
SYMATTR InstName R114
SYMATTR Value {wc(5.6k, tol_r,6)}
SYMBOL res 1344 4704 R0
SYMATTR InstName R115
SYMATTR Value 10k
SYMBOL res 1344 4816 R0
SYMATTR InstName R116
SYMATTR Value 10k
SYMBOL voltage 1280 3536 R0
WINDOW 123 0 0 Left 2
WINDOW 0 38 62 Left 2
SYMATTR InstName Vcc5
SYMATTR Value -5
SYMBOL res 1440 3552 R0
SYMATTR InstName R20
SYMATTR Value 10k
SYMBOL res 1440 3696 R0
SYMATTR InstName R21
SYMATTR Value 10k
SYMBOL AutoGenerated\\TLV365 2912 4576 R0
SYMATTR InstName U10
SYMBOL AutoGenerated\\TLV365 2912 5072 R0
SYMATTR InstName U11
TEXT 1696 3424 Left 2 !;tran 0 10m 0
TEXT 1712 3352 Left 2 !.ac lin 10 100k 150k
TEXT 1248 3992 Left 2 !.func binary(run,index) floor(run/(2**index))-2*floor(run/(2**(index+1)))
TEXT 1248 4032 Left 2 !.func wc(nom,tol,index) if(run==numruns,nom,if(binary(run,index),nom*(1+tol),nom*(1-tol)))
TEXT 1248 4088 Left 2 !.param tol_r=0.001
TEXT 1256 4128 Left 2 !.param tol_c=0.01
TEXT 1256 4168 Left 2 !.param numruns=4095
TEXT 1256 4208 Left 2 !.step param run 0 4095 1
