.MODEL KSA1220 PNP (
    IS=4.7863E-13 BF=289.3 BR=9.76 NR=1.006
    ISE=5.2481p NE=2 ISC=2.4909E-11 NC=1.5
    VAF=98.5 VAR=6.7 IKF=2.7061 IKR=0.0759
    RB=2.26 RBM=0.2308 IRB=0.001 RE=0.1908 RC=1.1748
    QCO=0.02 RCO=3.9811 VO=11.078 GAMMA=5.01187E-8
    CJE=3.4786E-10 VJE=0.9575 MJE=0.4694 FC=0.5
    CJC=1.1224E-10 VJC=0.5761 MJC=0.4365 XCJC=0.4955
    XTB=1.7978 EG=1.2255 XTI=3
)
