.MODEL KSC2690 NPN (
    IS=1.7783E-13 BF=132.5 BR=8.495 NR=1.005
    ISE=1.9953E-13 NE=1.5 ISC=1.5849n NC=1.98
    VAF=580.75 VAR=18.15 IKF=4.0271 IKR=0.012
    RB=2.98 RBM=0.001 IRB=0.6396 RE=0.0909 RC=1.4705
    QCO=0.68 RCO=3.6239 VO=6.587 GAMMA=2.8216E-7
    CJE=4.0082E-10 VJE=0.6696 MJE=0.3296 FC=0.5
    CJC=6.0404E-11 VJC=0.5 MJC=0.4266 XCJC=0.4955
    XTB=1.2590 EG=1.2277 XTI=3
)
