Version 4
SHEET 1 7344 9476
WIRE -864 4752 -1056 4752
WIRE -1056 4768 -1056 4752
WIRE -864 4768 -864 4752
WIRE -416 4784 -416 4768
WIRE -864 4864 -864 4848
WIRE -784 4864 -864 4864
WIRE -752 4864 -784 4864
WIRE -1056 4880 -1056 4848
WIRE -1056 4880 -1088 4880
WIRE -1088 4896 -1088 4880
WIRE -864 4896 -864 4864
WIRE -416 4896 -416 4864
WIRE -416 4896 -448 4896
WIRE -448 4912 -448 4896
WIRE -1056 4928 -1056 4880
WIRE -416 4944 -416 4896
WIRE -1056 5024 -1056 5008
WIRE -416 5040 -416 5024
WIRE -864 5056 -864 4976
WIRE -176 5392 -256 5392
WIRE 96 5392 -112 5392
WIRE -928 5440 -928 5424
WIRE -256 5504 -256 5392
WIRE -176 5504 -256 5504
WIRE 96 5504 96 5392
WIRE 96 5504 -96 5504
WIRE 528 5504 272 5504
WIRE 704 5504 608 5504
WIRE 1200 5520 944 5520
WIRE 1376 5520 1280 5520
WIRE 528 5568 448 5568
WIRE 704 5568 704 5504
WIRE 704 5568 592 5568
WIRE 1200 5584 1120 5584
WIRE 1376 5584 1376 5520
WIRE 1376 5584 1264 5584
WIRE -1088 5648 -1200 5648
WIRE -976 5648 -1088 5648
WIRE -800 5648 -896 5648
WIRE -768 5648 -800 5648
WIRE -576 5648 -688 5648
WIRE -528 5648 -576 5648
WIRE -432 5648 -464 5648
WIRE -256 5648 -256 5504
WIRE -256 5648 -352 5648
WIRE -1200 5680 -1200 5648
WIRE -688 5696 -688 5648
WIRE -576 5696 -576 5648
WIRE -256 5712 -256 5648
WIRE -208 5712 -256 5712
WIRE 96 5728 96 5504
WIRE 96 5728 -80 5728
WIRE 160 5728 96 5728
WIRE 272 5728 272 5504
WIRE 272 5728 240 5728
WIRE 320 5728 272 5728
WIRE 448 5728 448 5568
WIRE 448 5728 400 5728
WIRE 496 5728 448 5728
WIRE -208 5744 -256 5744
WIRE 704 5744 704 5568
WIRE 704 5744 624 5744
WIRE 832 5744 704 5744
WIRE 944 5744 944 5520
WIRE 944 5744 912 5744
WIRE 992 5744 944 5744
WIRE 1120 5744 1120 5584
WIRE 1120 5744 1072 5744
WIRE 1168 5744 1120 5744
WIRE 496 5760 448 5760
WIRE 1376 5760 1376 5584
WIRE 1376 5760 1296 5760
WIRE 1728 5760 1376 5760
WIRE 1168 5776 1120 5776
WIRE 1904 5776 1856 5776
WIRE 2352 5776 2192 5776
WIRE 2544 5776 2432 5776
WIRE 2672 5776 2544 5776
WIRE 272 5792 272 5728
WIRE 1728 5792 1664 5792
WIRE -1200 5808 -1200 5760
WIRE -1088 5808 -1200 5808
WIRE -976 5808 -1088 5808
WIRE -800 5808 -896 5808
WIRE -768 5808 -800 5808
WIRE -688 5808 -688 5760
WIRE -576 5808 -576 5760
WIRE -576 5808 -688 5808
WIRE -528 5808 -576 5808
WIRE -432 5808 -464 5808
WIRE -256 5808 -256 5744
WIRE -256 5808 -352 5808
WIRE 944 5808 944 5744
WIRE 272 5888 272 5856
WIRE -256 5904 -256 5808
WIRE -160 5904 -256 5904
WIRE 944 5904 944 5872
WIRE 2480 5904 2464 5904
WIRE 1520 5920 1488 5920
WIRE 1664 5920 1664 5792
WIRE 1664 5920 1520 5920
WIRE 1760 5920 1664 5920
WIRE 1904 5920 1904 5776
WIRE 1904 5920 1840 5920
WIRE 2016 5920 1904 5920
WIRE 2192 5920 2192 5776
WIRE 2192 5920 2096 5920
WIRE 2336 5920 2192 5920
WIRE 2544 5936 2544 5776
WIRE 2544 5936 2464 5936
WIRE 2336 5952 2272 5952
WIRE -256 5968 -256 5904
WIRE -160 5968 -160 5904
WIRE -256 6096 -256 6048
WIRE -160 6096 -160 6032
WIRE 2192 6096 2192 6080
WIRE 2272 6096 2272 5952
WIRE 2272 6096 2192 6096
WIRE 2192 6128 2192 6096
WIRE 1488 6144 1488 5920
WIRE 2192 6256 2192 6208
WIRE 1488 6272 1488 6224
WIRE 4400 6496 4320 6496
WIRE 4896 6496 4480 6496
WIRE 3136 6512 3072 6512
WIRE 3648 6512 3200 6512
WIRE 800 6560 736 6560
WIRE 1312 6560 864 6560
WIRE 1760 6560 1680 6560
WIRE 2256 6560 1840 6560
WIRE 4752 6560 4608 6560
WIRE 4896 6560 4896 6496
WIRE 4896 6560 4816 6560
WIRE 3072 6576 3072 6512
WIRE 3504 6576 3072 6576
WIRE 3648 6576 3648 6512
WIRE 3648 6576 3584 6576
WIRE -896 6608 -896 6592
WIRE -304 6608 -304 6592
WIRE 5008 6608 5008 6592
WIRE 256 6624 256 6608
WIRE 736 6624 736 6560
WIRE 1168 6624 736 6624
WIRE 1312 6624 1312 6560
WIRE 1312 6624 1248 6624
WIRE 2112 6624 1904 6624
WIRE 2256 6624 2256 6560
WIRE 2256 6624 2176 6624
WIRE 2736 6640 2640 6640
WIRE 2864 6640 2816 6640
WIRE 3744 6656 3744 6640
WIRE 2368 6672 2368 6656
WIRE 1408 6688 1408 6672
WIRE 5344 6688 5296 6688
WIRE 5408 6688 5344 6688
WIRE 5552 6688 5488 6688
WIRE 5792 6688 5552 6688
WIRE 6016 6688 5792 6688
WIRE 6144 6688 6016 6688
WIRE 6320 6688 6224 6688
WIRE 6624 6688 6320 6688
WIRE 6736 6688 6624 6688
WIRE 4704 6720 4704 6704
WIRE 3424 6736 3424 6656
WIRE 4896 6736 4896 6560
WIRE 4960 6736 4896 6736
WIRE 5296 6736 5296 6688
WIRE 5296 6736 4960 6736
WIRE 6320 6736 6320 6688
WIRE 6816 6752 6816 6736
WIRE 5552 6768 5552 6752
WIRE 5552 6768 5520 6768
WIRE 5840 6768 5792 6768
WIRE 1088 6784 1088 6704
WIRE 2064 6784 2064 6768
WIRE 4320 6784 4320 6496
WIRE 4384 6784 4320 6784
WIRE 4544 6784 4464 6784
WIRE 4608 6784 4608 6560
WIRE 4608 6784 4544 6784
WIRE 4672 6784 4608 6784
WIRE 4896 6784 4896 6736
WIRE 4896 6784 4832 6784
WIRE 2256 6800 2256 6624
WIRE 2320 6800 2256 6800
WIRE 2640 6800 2640 6640
WIRE 2640 6800 2320 6800
WIRE 2736 6800 2640 6800
WIRE 2864 6800 2864 6640
WIRE 2864 6800 2816 6800
WIRE 3072 6800 3072 6576
WIRE 3072 6800 2864 6800
WIRE 3136 6800 3072 6800
WIRE 3296 6800 3216 6800
WIRE 3392 6800 3296 6800
WIRE 3648 6800 3648 6576
WIRE 3648 6800 3552 6800
WIRE 3760 6800 3648 6800
WIRE 4176 6800 3760 6800
WIRE 4320 6800 4320 6784
WIRE 4320 6800 4256 6800
WIRE -1136 6848 -1200 6848
WIRE -1040 6848 -1136 6848
WIRE -848 6848 -960 6848
WIRE -656 6848 -848 6848
WIRE -592 6848 -656 6848
WIRE -448 6848 -528 6848
WIRE -400 6848 -448 6848
WIRE -304 6848 -400 6848
WIRE -208 6848 -224 6848
WIRE 480 6848 -208 6848
WIRE 560 6848 480 6848
WIRE 736 6848 736 6624
WIRE 736 6848 640 6848
WIRE 800 6848 736 6848
WIRE 1056 6848 880 6848
WIRE 1264 6848 1216 6848
WIRE 1312 6848 1312 6624
WIRE 1312 6848 1264 6848
WIRE 1504 6848 1312 6848
WIRE 1680 6848 1680 6560
WIRE 1680 6848 1584 6848
WIRE 1744 6848 1680 6848
WIRE 1904 6848 1904 6624
WIRE 1904 6848 1824 6848
WIRE 2032 6848 1904 6848
WIRE 2256 6848 2256 6800
WIRE 2256 6848 2192 6848
WIRE 4608 6848 4544 6848
WIRE 4672 6848 4608 6848
WIRE 4896 6848 4832 6848
WIRE 4960 6848 4896 6848
WIRE 5296 6848 4960 6848
WIRE 5408 6848 5296 6848
WIRE 5552 6848 5552 6832
WIRE 5552 6848 5488 6848
WIRE 5792 6848 5552 6848
WIRE 6032 6848 5792 6848
WIRE 6144 6848 6032 6848
WIRE 6320 6848 6320 6800
WIRE 6320 6848 6224 6848
WIRE 6624 6848 6320 6848
WIRE 6736 6848 6624 6848
WIRE -1200 6864 -1200 6848
WIRE 1680 6864 1680 6848
WIRE 3392 6864 3296 6864
WIRE 3648 6864 3552 6864
WIRE 3760 6864 3648 6864
WIRE 4176 6864 3760 6864
WIRE 4320 6864 4256 6864
WIRE 4320 6880 4320 6864
WIRE 4384 6880 4320 6880
WIRE 4544 6880 4544 6848
WIRE 4544 6880 4464 6880
WIRE 3072 6896 2864 6896
WIRE 3136 6896 3072 6896
WIRE 3296 6896 3296 6864
WIRE 3296 6896 3216 6896
WIRE 1056 6912 960 6912
WIRE 1248 6912 1216 6912
WIRE 1312 6912 1248 6912
WIRE 1504 6912 1312 6912
WIRE 2032 6912 2000 6912
WIRE 2256 6912 2192 6912
WIRE 2320 6912 2256 6912
WIRE 2640 6912 2320 6912
WIRE 2736 6912 2640 6912
WIRE 2864 6912 2864 6896
WIRE 2864 6912 2816 6912
WIRE 4704 6928 4704 6912
WIRE 480 6944 80 6944
WIRE 560 6944 480 6944
WIRE 736 6944 640 6944
WIRE 800 6944 736 6944
WIRE 960 6944 960 6912
WIRE 960 6944 880 6944
WIRE 1504 6944 1504 6912
WIRE 1680 6944 1680 6928
WIRE 1680 6944 1584 6944
WIRE 1744 6944 1680 6944
WIRE 1904 6944 1904 6912
WIRE 1904 6944 1824 6944
WIRE 2000 6944 2000 6912
WIRE 2000 6944 1904 6944
WIRE 1376 6976 1120 6976
WIRE -848 6992 -848 6976
WIRE -752 6992 -768 6992
WIRE -736 6992 -752 6992
WIRE -656 6992 -656 6976
WIRE 2064 6992 2064 6976
WIRE -752 7008 -752 6992
WIRE 2640 7008 2640 6912
WIRE 2736 7008 2640 7008
WIRE 2864 7008 2864 6912
WIRE 2864 7008 2816 7008
WIRE 3424 7008 3424 6928
WIRE 3456 7040 3456 6928
WIRE 3680 7040 3456 7040
WIRE 4736 7040 4736 6912
WIRE 5024 7040 5024 7024
WIRE 5024 7040 4736 7040
WIRE -848 7056 -848 6992
WIRE -656 7056 -656 6992
WIRE 1088 7056 1088 6976
WIRE 5024 7056 5024 7040
WIRE 4608 7088 4608 6848
WIRE 4752 7088 4608 7088
WIRE 4896 7088 4896 6848
WIRE 4896 7088 4816 7088
WIRE 2096 7104 2096 6976
WIRE 2384 7104 2384 7088
WIRE 2384 7104 2096 7104
WIRE 3072 7104 3072 6896
WIRE 3504 7104 3072 7104
WIRE 3648 7104 3648 6864
WIRE 3648 7104 3584 7104
WIRE 2384 7120 2384 7104
WIRE 5344 7136 5344 6688
WIRE 5568 7136 5344 7136
WIRE 5712 7136 5648 7136
WIRE 6016 7136 5712 7136
WIRE 6352 7136 6016 7136
WIRE 6480 7136 6432 7136
WIRE 6528 7136 6480 7136
WIRE 6624 7136 6528 7136
WIRE 6736 7136 6624 7136
WIRE 736 7152 736 6944
WIRE 1168 7152 736 7152
WIRE 1312 7152 1312 6912
WIRE 1312 7152 1248 7152
WIRE 1904 7152 1904 6944
WIRE 2112 7152 1904 7152
WIRE 2256 7152 2256 6912
WIRE 2256 7152 2176 7152
WIRE 4320 7152 4320 6880
WIRE 4384 7152 4320 7152
WIRE 4896 7152 4896 7088
WIRE 4896 7152 4464 7152
WIRE 5024 7152 5024 7136
WIRE 3072 7168 3072 7104
WIRE 3136 7168 3072 7168
WIRE 3648 7168 3648 7104
WIRE 3648 7168 3200 7168
WIRE -1200 7184 -1200 6944
WIRE -1136 7184 -1200 7184
WIRE -1040 7184 -1136 7184
WIRE -848 7184 -960 7184
WIRE -656 7184 -848 7184
WIRE -592 7184 -656 7184
WIRE -448 7184 -528 7184
WIRE -400 7184 -448 7184
WIRE -304 7184 -400 7184
WIRE -208 7184 -224 7184
WIRE 80 7184 80 6944
WIRE 80 7184 -208 7184
WIRE 6528 7184 6528 7136
WIRE 736 7216 736 7152
WIRE 800 7216 736 7216
WIRE 1312 7216 1312 7152
WIRE 1312 7216 864 7216
WIRE 1680 7216 1680 6944
WIRE 1744 7216 1680 7216
WIRE 2256 7216 2256 7152
WIRE 2256 7216 1824 7216
WIRE 2384 7216 2384 7200
WIRE 5712 7216 5712 7200
WIRE 5712 7216 5680 7216
WIRE 6816 7232 6816 7216
WIRE 1376 7264 1376 6976
WIRE 1440 7264 1440 7248
WIRE 1440 7264 1376 7264
WIRE 1440 7280 1440 7264
WIRE 5296 7296 5296 6848
WIRE 5568 7296 5296 7296
WIRE 5712 7296 5712 7280
WIRE 5712 7296 5648 7296
WIRE 6016 7296 5712 7296
WIRE 6352 7296 6016 7296
WIRE 6480 7296 6432 7296
WIRE 6528 7296 6528 7248
WIRE 6528 7296 6480 7296
WIRE 6640 7296 6528 7296
WIRE 6736 7296 6640 7296
WIRE 3680 7328 3680 7040
WIRE 3776 7328 3776 7312
WIRE 3776 7328 3680 7328
WIRE 3776 7344 3776 7328
WIRE 1440 7376 1440 7360
WIRE 3776 7440 3776 7424
WIRE 5968 7552 5968 7536
FLAG -416 4768 5V
FLAG -416 5040 -5V
FLAG -448 4912 0
FLAG -928 5520 0
FLAG -928 5424 Sig_IN_1
FLAG -800 5648 IN_p
FLAG -800 5808 IN_n
FLAG -80 5696 -5V
FLAG -256 6096 0
FLAG -160 6096 0
FLAG -1056 5024 -3.3V
FLAG -1088 4896 0
FLAG -80 5760 5V
FLAG -1088 5648 IN_COIL_p
FLAG -1088 5808 IN_COIL_n
FLAG 272 5888 0
FLAG 1296 5728 -5V
FLAG 1296 5792 5V
FLAG 944 5904 0
FLAG 1488 6272 0
FLAG 1520 5920 V_Gain_Resistors
FLAG 2672 5776 AIN_MCU1
FLAG 2480 5904 0
FLAG 2192 6256 0
FLAG 2192 6000 3.3V
FLAG 624 5712 -5V
FLAG 624 5776 5V
FLAG 1856 5744 5V
FLAG 1856 5808 -5V
FLAG 2464 5968 5V
FLAG 448 5760 0
FLAG 1120 5776 0
FLAG -896 6688 0
FLAG -896 6592 Sig_IN
FLAG -1136 6848 IN_p
FLAG -1136 7184 IN_n
FLAG -448 6848 IN_p3
FLAG -448 7184 IN_n3
FLAG -1056 4752 3.3V
FLAG -864 5056 0
FLAG -784 4864 Vref
FLAG -304 6688 0
FLAG -304 6592 Sig_IN3
FLAG 256 6704 0
FLAG 256 6608 Sig_IN2
FLAG 480 6848 IN_p2
FLAG 480 6944 IN_n2
FLAG -208 7248 0
FLAG -208 6912 0
FLAG 2368 6752 0
FLAG 2368 6656 Out_LP1_Diff_Value
FLAG 1440 7168 3.3V
FLAG 1440 7376 0
FLAG 2384 7008 3.3V
FLAG 2384 7216 0
FLAG 2064 6768 3.3V
FLAG 2064 6992 0
FLAG 1088 6704 3.3V
FLAG 1088 7056 0
FLAG 2320 6800 OUT2-
FLAG 2320 6912 OUT2+
FLAG 1264 6848 OUT1-
FLAG 1248 6912 OUT1+
FLAG 1408 6768 0
FLAG 1408 6672 Out_LNA_Diff_Value
FLAG -752 7008 0
FLAG -400 7248 0
FLAG -400 6912 0
FLAG 5520 6768 0
FLAG 6016 6688 FPGA_Pin_p
FLAG 6032 6848 FPGA_Pin_n
FLAG 6816 6832 0
FLAG 6816 6736 FPGA_ADC_Diff_Internal
FLAG 6480 7136 Ch_p
FLAG 6480 7296 Ch_n
FLAG 5680 7216 0
FLAG 6016 7136 MCU_ADC_Pin_p
FLAG 6016 7296 MCU_ADC_Pin_n
FLAG 6816 7312 0
FLAG 6816 7216 MCU_ADC_Diff_Internal
FLAG 6624 7136 MCU_ADC_INT_p
FLAG 6640 7296 MCU_ADC_INT_n
FLAG 6624 6688 FPGA_ADC_INT_p
FLAG 6624 6848 FPGA_ADC_INT_n
FLAG 5840 6768 0
FLAG 5968 7632 0
FLAG 5968 7536 MCU_AIN_PIN
FLAG 3424 6656 3.3V
FLAG 3424 7008 0
FLAG 3776 7232 3.3V
FLAG 3776 7440 0
FLAG 3744 6736 0
FLAG 3744 6640 Out_PGA_DiffValue
FLAG 3760 6800 OUT3-
FLAG 3760 6864 OUT3+
FLAG 2640 6576 0
FLAG 2640 7072 0
FLAG 2864 7072 0
FLAG 2864 6576 0
FLAG 5008 6688 0
FLAG 5008 6592 Out_LP2_Diff_Value
FLAG 5024 6944 3.3V
FLAG 5024 7152 0
FLAG 4704 6704 3.3V
FLAG 4704 6928 0
FLAG 4960 6736 OUT4-
FLAG 4960 6848 OUT4+
FLAG 96 5392 Out_LNA1
FLAG 704 5504 Out_LNP1
SYMBOL res -672 5632 R90
WINDOW 0 0 56 VBottom 2
WINDOW 3 32 56 VTop 2
SYMATTR InstName R37
SYMATTR Value 5k
SYMBOL res -672 5792 R90
WINDOW 0 0 56 VBottom 2
WINDOW 3 32 56 VTop 2
SYMATTR InstName R38
SYMATTR Value 5k
SYMBOL voltage -416 4928 R0
WINDOW 123 0 0 Left 2
SYMATTR InstName Vee1
SYMATTR Value 5
SYMBOL voltage -416 4768 R0
WINDOW 123 0 0 Left 2
SYMATTR InstName Vcc1
SYMATTR Value 5
SYMBOL diode -704 5696 R0
WINDOW 3 26 85 Left 2
SYMATTR Value 1N4148
SYMATTR InstName D1
SYMBOL diode -560 5760 R180
WINDOW 0 24 64 Left 2
WINDOW 3 24 0 Left 2
SYMATTR InstName D2
SYMATTR Value 1N4148
SYMBOL res -880 5632 R90
WINDOW 0 0 56 VBottom 2
WINDOW 3 32 56 VTop 2
SYMATTR InstName R4
SYMATTR Value 10m
SYMBOL res -880 5792 R90
WINDOW 0 0 56 VBottom 2
WINDOW 3 32 56 VTop 2
SYMATTR InstName R5
SYMATTR Value 10m
SYMBOL bv -928 5424 R0
SYMATTR InstName B3
SYMATTR Value V=V(IN_p,IN_n)
SYMBOL res -192 5520 R270
WINDOW 0 32 56 VTop 2
WINDOW 3 -1 106 VBottom 2
SYMATTR InstName R41
SYMATTR Value {mc(68.1k, tol_R)}
SYMBOL res -272 5952 R0
WINDOW 3 128 110 Left 2
SYMATTR Value {mc(68.1k, tol_R)}
SYMATTR InstName R44
SYMBOL cap -176 5968 R0
SYMATTR InstName C14
SYMATTR Value {mc(4.7p, tol_C)}
SYMBOL cap -112 5376 R90
WINDOW 0 0 32 VBottom 2
WINDOW 3 32 32 VTop 2
SYMATTR InstName C15
SYMATTR Value {mc(4.7p, tol_C)}
SYMBOL AutoGenerated\\OPA2863 -144 5728 M180
WINDOW 0 36 -57 Bottom 2
SYMATTR InstName U1
SYMBOL voltage -1056 4912 R0
WINDOW 123 0 0 Left 2
SYMATTR InstName Vee3
SYMATTR Value 3.3
SYMBOL voltage -1056 4752 R0
WINDOW 123 0 0 Left 2
SYMATTR InstName Vcc3
SYMATTR Value 3.3
SYMBOL voltage -1200 5664 R0
WINDOW 123 48 86 Left 2
WINDOW 0 46 32 Left 2
WINDOW 3 48 59 Left 2
WINDOW 39 0 0 Left 0
SYMATTR Value2 AC 1
SYMATTR InstName Vcc4
SYMATTR Value 0.1m
SYMBOL res 512 5520 R270
WINDOW 0 32 56 VTop 2
WINDOW 3 90 53 VBottom 2
SYMATTR InstName R1
SYMATTR Value 5k
SYMBOL cap 592 5552 R90
WINDOW 0 0 32 VBottom 2
WINDOW 3 32 32 VTop 2
SYMATTR InstName C1
SYMATTR Value 100p
SYMBOL AutoGenerated\\OPA2863 560 5744 M180
WINDOW 0 36 -57 Bottom 2
SYMATTR InstName U2
SYMBOL res 304 5744 R270
WINDOW 0 32 56 VTop 2
WINDOW 3 -7 50 VBottom 2
SYMATTR InstName R6
SYMATTR Value 2k
SYMBOL res 144 5744 R270
WINDOW 0 32 56 VTop 2
WINDOW 3 -11 52 VBottom 2
SYMATTR InstName R7
SYMATTR Value 5k
SYMBOL cap 288 5856 R180
WINDOW 0 24 56 Left 2
WINDOW 3 24 8 Left 2
SYMATTR InstName C3
SYMATTR Value 220p
SYMBOL res 1184 5536 R270
WINDOW 0 32 56 VTop 2
WINDOW 3 90 53 VBottom 2
SYMATTR InstName R8
SYMATTR Value 5k
SYMBOL cap 1264 5568 R90
WINDOW 0 0 32 VBottom 2
WINDOW 3 32 32 VTop 2
SYMATTR InstName C4
SYMATTR Value 100p
SYMBOL AutoGenerated\\OPA2863 1232 5760 M180
WINDOW 0 36 -57 Bottom 2
SYMATTR InstName U3
SYMBOL res 976 5760 R270
WINDOW 0 32 56 VTop 2
WINDOW 3 -65 118 VBottom 2
SYMATTR InstName R9
SYMATTR Value 2k
SYMBOL res 816 5760 R270
WINDOW 0 32 56 VTop 2
WINDOW 3 -9 7 VBottom 2
SYMATTR InstName R10
SYMATTR Value 5k
SYMBOL cap 960 5872 R180
WINDOW 0 24 56 Left 2
WINDOW 3 24 8 Left 2
SYMATTR InstName C5
SYMATTR Value 220p
SYMBOL AutoGenerated\\OPA2863 1792 5776 R0
WINDOW 0 36 -57 Bottom 2
SYMATTR InstName U4
SYMBOL res 1744 5936 R270
WINDOW 0 32 56 VTop 2
WINDOW 3 0 56 VBottom 2
SYMATTR InstName R12
SYMATTR Value {mc(6.8k, tol_R)}
SYMBOL AutoGenerated\\OPA2863 2400 5936 M180
WINDOW 0 36 -57 Bottom 2
SYMATTR InstName U5
SYMBOL res 2448 5760 R90
WINDOW 0 -7 62 VBottom 2
WINDOW 3 37 50 VTop 2
SYMATTR InstName R16
SYMATTR Value {mc(10k, tol_R)}
SYMBOL res 2112 5904 R90
WINDOW 0 0 56 VBottom 2
WINDOW 3 32 56 VTop 2
SYMATTR InstName R18
SYMATTR Value {mc(10k, tol_R)}
SYMBOL res 2208 6096 R180
WINDOW 0 36 76 Left 2
WINDOW 3 36 40 Left 2
SYMATTR InstName R19
SYMATTR Value {mc(1k, tol_R)}
SYMBOL res 2208 6224 R180
WINDOW 0 36 76 Left 2
WINDOW 3 36 40 Left 2
SYMATTR InstName R20
SYMATTR Value {mc(1k, tol_R)}
SYMBOL res 1472 6128 R0
SYMATTR InstName R_SWITCH1
SYMATTR Value {R_IN_PGA1}
SYMBOL res -336 5632 R90
WINDOW 0 0 56 VBottom 2
WINDOW 3 32 56 VTop 2
SYMATTR InstName R11
SYMATTR Value 1k
SYMBOL res -336 5792 R90
WINDOW 0 0 56 VBottom 2
WINDOW 3 32 56 VTop 2
SYMATTR InstName R13
SYMATTR Value 1k
SYMBOL cap -464 5632 R90
WINDOW 0 0 32 VBottom 2
WINDOW 3 32 32 VTop 2
SYMATTR InstName C6
SYMATTR Value 1n
SYMBOL cap -464 5792 R90
WINDOW 0 0 32 VBottom 2
WINDOW 3 32 32 VTop 2
SYMATTR InstName C8
SYMATTR Value 1n
SYMBOL res -944 6832 R90
WINDOW 0 0 56 VBottom 2
WINDOW 3 32 56 VTop 2
SYMATTR InstName R14
SYMATTR Value 5k
SYMBOL res -944 7168 R90
WINDOW 0 0 56 VBottom 2
WINDOW 3 32 56 VTop 2
SYMATTR InstName R15
SYMATTR Value 5k
SYMBOL bv -896 6592 R0
SYMATTR InstName B1
SYMATTR Value V=V(IN_p,IN_n)
SYMBOL res -880 4752 R0
SYMATTR InstName R17
SYMATTR Value 1k
SYMBOL res -880 4880 R0
SYMATTR InstName R21
SYMATTR Value 1k
SYMBOL bv -304 6592 R0
SYMATTR InstName B2
SYMATTR Value V=V(IN_p3,IN_n3)
SYMBOL bv 256 6608 R0
SYMATTR InstName B4
SYMATTR Value V=V(IN_p2,IN_n2)
SYMBOL voltage -1200 6848 R0
WINDOW 123 47 46 Left 2
WINDOW 39 0 0 Left 0
WINDOW 3 53 85 Left 2
WINDOW 0 47 13 Left 2
SYMATTR Value2 AC 1
SYMATTR Value SINE(0 1000 120k)
SYMATTR InstName V1
SYMBOL cap -224 7184 R0
WINDOW 0 39 14 Left 2
WINDOW 3 41 39 Left 2
SYMATTR InstName C7
SYMATTR Value 4p
SYMBOL cap -224 6848 R0
WINDOW 0 34 17 Left 2
WINDOW 3 34 44 Left 2
SYMATTR InstName C9
SYMATTR Value 4p
SYMBOL bv 2368 6656 R0
SYMATTR InstName B5
SYMATTR Value V=V(OUT2-,OUT2+)
SYMBOL res 1456 7264 R180
WINDOW 0 -63 70 Left 2
WINDOW 3 -55 42 Left 2
SYMATTR InstName RG1
SYMATTR Value 1k
SYMBOL res 1456 7376 R180
WINDOW 0 -63 70 Left 2
WINDOW 3 -56 43 Left 2
SYMATTR InstName RG2
SYMATTR Value 1k
SYMBOL res 2400 7104 R180
WINDOW 0 -63 70 Left 2
WINDOW 3 -44 38 Left 2
SYMATTR InstName RG3
SYMATTR Value 1k
SYMBOL res 2400 7216 R180
WINDOW 0 -63 70 Left 2
WINDOW 3 -46 41 Left 2
SYMATTR InstName RG4
SYMATTR Value 1k
SYMBOL cap -528 6832 R90
WINDOW 0 0 32 VBottom 2
WINDOW 3 -11 -8 VTop 2
SYMATTR InstName C10
SYMATTR Value 1n
SYMBOL cap -528 7168 R90
WINDOW 0 0 32 VBottom 2
WINDOW 3 -15 -14 VTop 2
SYMATTR InstName C11
SYMATTR Value 1n
SYMBOL res 1600 6928 R90
WINDOW 0 65 57 VBottom 2
WINDOW 3 65 58 VTop 2
SYMATTR InstName RG5
SYMATTR Value 5k
SYMBOL res 1600 6832 R90
WINDOW 0 -26 54 VBottom 2
WINDOW 3 -28 55 VTop 2
SYMATTR InstName RG6
SYMATTR Value 5k
SYMBOL res 1264 7136 R90
WINDOW 0 0 56 VBottom 2
WINDOW 3 30 135 VTop 2
SYMATTR InstName RF1
SYMATTR Value 68.1k
SYMBOL res 1264 6608 R90
WINDOW 0 63 57 VBottom 2
WINDOW 3 -35 130 VTop 2
SYMATTR InstName RF2
SYMATTR Value 68.1k
SYMBOL AD8137 1088 6880 R0
SYMATTR InstName U6
SYMBOL cap 864 6544 R90
WINDOW 0 16 0 VBottom 2
WINDOW 3 -40 -52 VTop 2
SYMATTR InstName C12
SYMATTR Value 4.7p
SYMBOL cap 864 7200 R90
WINDOW 0 46 -2 VBottom 2
WINDOW 3 48 -55 VTop 2
SYMATTR InstName C13
SYMATTR Value 4.7p
SYMBOL AD8137 2064 6880 R0
SYMATTR InstName U7
SYMBOL bv 1408 6672 R0
SYMATTR InstName B6
SYMATTR Value V=V(OUT1-,OUT1+)
SYMBOL res 896 6832 R90
WINDOW 0 -26 54 VBottom 2
WINDOW 3 -28 55 VTop 2
SYMATTR InstName Rn1
SYMATTR Value 100
SYMBOL res 896 6928 R90
WINDOW 0 -26 54 VBottom 2
WINDOW 3 -28 55 VTop 2
SYMATTR InstName Rn2
SYMATTR Value 100
SYMBOL cap 1664 6864 R0
SYMATTR InstName C16
SYMATTR Value 220p
SYMBOL res 1840 6832 R90
WINDOW 0 -26 54 VBottom 2
WINDOW 3 -28 55 VTop 2
SYMATTR InstName RG7
SYMATTR Value 2k
SYMBOL res 1840 6928 R90
WINDOW 0 -26 54 VBottom 2
WINDOW 3 -28 55 VTop 2
SYMATTR InstName RG8
SYMATTR Value 2k
SYMBOL cap 2176 6608 R90
WINDOW 0 0 32 VBottom 2
WINDOW 3 32 32 VTop 2
SYMATTR InstName C17
SYMATTR Value 100p
SYMBOL cap 2176 7136 R90
WINDOW 0 0 32 VBottom 2
WINDOW 3 32 32 VTop 2
SYMATTR InstName C18
SYMATTR Value 100p
SYMBOL res 1856 6544 R90
WINDOW 0 -26 54 VBottom 2
WINDOW 3 -28 55 VTop 2
SYMATTR InstName RG9
SYMATTR Value 5k
SYMBOL res 1840 7200 R90
WINDOW 0 -26 54 VBottom 2
WINDOW 3 -28 55 VTop 2
SYMATTR InstName RG10
SYMATTR Value 5k
SYMBOL cap 1888 6848 R0
WINDOW 0 34 17 Left 2
WINDOW 3 35 44 Left 2
SYMATTR InstName C19
SYMATTR Value 220p
SYMBOL schottky -832 6912 R180
WINDOW 0 39 46 Left 2
WINDOW 3 36 24 Left 2
SYMATTR InstName D3
SYMATTR Value BAT54
SYMATTR Description Diode
SYMATTR Type diode
SYMBOL schottky -832 6976 R180
WINDOW 0 39 46 Left 2
WINDOW 3 36 24 Left 2
SYMATTR InstName D4
SYMATTR Value BAT54
SYMATTR Description Diode
SYMATTR Type diode
SYMBOL schottky -672 6912 R0
WINDOW 0 -37 18 Left 2
WINDOW 3 -78 40 Left 2
SYMATTR InstName D5
SYMATTR Value BAT54
SYMATTR Description Diode
SYMATTR Type diode
SYMBOL schottky -672 6848 R0
WINDOW 0 -37 17 Left 2
WINDOW 3 -78 40 Left 2
SYMATTR InstName D6
SYMATTR Value BAT54
SYMATTR Description Diode
SYMATTR Type diode
SYMBOL schottky -864 7120 R0
WINDOW 0 -39 20 Left 2
WINDOW 3 -79 45 Left 2
SYMATTR InstName D7
SYMATTR Value BAT54
SYMATTR Description Diode
SYMATTR Type diode
SYMBOL schottky -864 7056 R0
WINDOW 0 -40 21 Left 2
WINDOW 3 -83 43 Left 2
SYMATTR InstName D8
SYMATTR Value BAT54
SYMATTR Description Diode
SYMATTR Type diode
SYMBOL schottky -640 7120 R180
WINDOW 0 39 46 Left 2
WINDOW 3 36 24 Left 2
SYMATTR InstName D9
SYMATTR Value BAT54
SYMATTR Description Diode
SYMATTR Type diode
SYMBOL schottky -640 7184 R180
WINDOW 0 39 46 Left 2
WINDOW 3 36 24 Left 2
SYMATTR InstName D10
SYMATTR Value BAT54
SYMATTR Description Diode
SYMATTR Type diode
SYMBOL res -752 6976 R90
WINDOW 0 82 55 VBottom 2
WINDOW 3 32 56 VTop 2
SYMATTR InstName R22
SYMATTR Value 0.001
SYMBOL res -640 6976 R90
WINDOW 0 81 54 VBottom 2
WINDOW 3 32 56 VTop 2
SYMATTR InstName R23
SYMATTR Value 0.001
SYMBOL res -208 6832 R90
WINDOW 0 0 56 VBottom 2
WINDOW 3 -28 21 VTop 2
SYMATTR InstName R24
SYMATTR Value 5
SYMBOL res -208 7168 R90
WINDOW 0 0 56 VBottom 2
WINDOW 3 -27 22 VTop 2
SYMATTR InstName R25
SYMATTR Value 5
SYMBOL cap -416 7184 R0
WINDOW 0 39 14 Left 2
WINDOW 3 41 39 Left 2
SYMATTR InstName C20
SYMATTR Value 4p
SYMBOL cap -416 6848 R0
WINDOW 0 39 14 Left 2
WINDOW 3 41 39 Left 2
SYMATTR InstName C21
SYMATTR Value 4p
SYMBOL res 656 6832 R90
WINDOW 0 -6 53 VBottom 2
WINDOW 3 30 101 VTop 2
SYMATTR InstName RIN1
SYMATTR Value 1k
SYMBOL res 656 6928 R90
WINDOW 0 -5 57 VBottom 2
WINDOW 3 30 101 VTop 2
SYMATTR InstName RIN2
SYMATTR Value 1k
SYMBOL res 5504 6672 R90
WINDOW 0 -26 54 VBottom 2
WINDOW 3 -28 55 VTop 2
SYMATTR InstName RG11
SYMATTR Value {mc(1k, tol_R)}
SYMBOL res 5504 6832 R90
WINDOW 0 -26 54 VBottom 2
WINDOW 3 -28 55 VTop 2
SYMATTR InstName RG12
SYMATTR Value {mc(1k, tol_R)}
SYMBOL cap 5536 6688 R0
WINDOW 3 25 -27 Left 2
SYMATTR Value {mc(1000p, tol_C)}
SYMATTR InstName C22
SYMBOL cap 5536 6768 R0
WINDOW 3 -14 89 Left 2
SYMATTR Value {mc(1000p, tol_C)}
SYMATTR InstName C23
SYMBOL res 6448 7120 R90
WINDOW 0 0 56 VBottom 2
WINDOW 3 32 56 VTop 2
SYMATTR InstName R26
SYMATTR Value 1.2k
SYMBOL res 6448 7280 R90
WINDOW 0 0 56 VBottom 2
WINDOW 3 32 56 VTop 2
SYMATTR InstName R27
SYMATTR Value 1.2k
SYMBOL bv 6816 6736 R0
SYMATTR InstName B7
SYMATTR Value V=V(FPGA_ADC_INT_p,FPGA_ADC_INT_n)
SYMBOL cap 6512 7184 R0
WINDOW 3 39 34 Left 2
WINDOW 0 39 11 Left 2
SYMATTR Value 8pF
SYMATTR InstName Ch1
SYMBOL res 5664 7120 R90
WINDOW 0 -26 54 VBottom 2
WINDOW 3 -28 55 VTop 2
SYMATTR InstName RG13
SYMATTR Value {mc(330, tol_R)}
SYMBOL res 5664 7280 R90
WINDOW 0 -26 54 VBottom 2
WINDOW 3 -28 55 VTop 2
SYMATTR InstName RG14
SYMATTR Value {mc(330, tol_R)}
SYMBOL cap 5696 7136 R0
SYMATTR InstName C24
SYMATTR Value {mc(1n, tol_C)}
SYMBOL cap 5696 7216 R0
WINDOW 3 -14 89 Left 2
SYMATTR Value {mc(1n, tol_C)}
SYMATTR InstName C25
SYMBOL res 6240 6672 R90
WINDOW 0 0 56 VBottom 2
WINDOW 3 32 56 VTop 2
SYMATTR InstName R28
SYMATTR Value 10k
SYMBOL res 6240 6832 R90
WINDOW 0 0 56 VBottom 2
WINDOW 3 32 56 VTop 2
SYMATTR InstName R29
SYMATTR Value 10k
SYMBOL cap 6304 6736 R0
WINDOW 3 39 34 Left 2
WINDOW 0 39 11 Left 2
SYMATTR Value 3pF
SYMATTR InstName Ch2
SYMBOL bv 6816 7216 R0
SYMATTR InstName B8
SYMATTR Value V=V(MCU_ADC_INT_p,MCU_ADC_INT_n)
SYMBOL res 5808 6784 R180
WINDOW 0 36 76 Left 2
WINDOW 3 36 40 Left 2
SYMATTR InstName RG15
SYMATTR Value {mc(590, tol_R)}
SYMBOL res 5808 6864 R180
WINDOW 0 36 76 Left 2
WINDOW 3 36 40 Left 2
SYMATTR InstName RG16
SYMATTR Value {mc(590, tol_R)}
SYMBOL bv 5968 7536 R0
SYMATTR InstName B9
SYMATTR Value V=V(MCU_ADC_Pin_p,MCU_ADC_Pin_n)
SYMBOL res 2832 6784 R90
WINDOW 0 -6 53 VBottom 2
WINDOW 3 30 101 VTop 2
SYMATTR InstName RIN3
SYMATTR Value 68.1k
SYMBOL res 2832 6896 R90
WINDOW 0 -5 57 VBottom 2
WINDOW 3 30 101 VTop 2
SYMATTR InstName RIN4
SYMATTR Value 68.1k
SYMBOL res 3600 7088 R90
WINDOW 0 0 56 VBottom 2
WINDOW 3 30 135 VTop 2
SYMATTR InstName RF3
SYMATTR Value 68.1k
SYMBOL res 3600 6560 R90
WINDOW 0 63 57 VBottom 2
WINDOW 3 -35 130 VTop 2
SYMATTR InstName RF4
SYMATTR Value 68.1k
SYMBOL AD8137 3424 6832 R0
SYMATTR InstName U8
SYMBOL cap 3200 6496 R90
WINDOW 0 16 0 VBottom 2
WINDOW 3 22 -4 VTop 2
SYMATTR InstName C26
SYMATTR Value 4.7p
SYMBOL cap 3200 7152 R90
WINDOW 0 46 -2 VBottom 2
WINDOW 3 -16 -8 VTop 2
SYMATTR InstName C27
SYMATTR Value 4.7p
SYMBOL res 3792 7328 R180
WINDOW 0 -63 70 Left 2
WINDOW 3 -42 40 Left 2
SYMATTR InstName RG17
SYMATTR Value 1k
SYMBOL res 3792 7440 R180
WINDOW 0 -63 70 Left 2
WINDOW 3 -44 42 Left 2
SYMATTR InstName RG18
SYMATTR Value 1k
SYMBOL res 3232 6784 R90
WINDOW 0 63 57 VBottom 2
WINDOW 3 -16 -6 VTop 2
SYMATTR InstName RF5
SYMATTR Value 100
SYMBOL res 3232 6880 R90
WINDOW 0 63 57 VBottom 2
WINDOW 3 -14 -7 VTop 2
SYMATTR InstName RF6
SYMATTR Value 100
SYMBOL bv 3744 6640 R0
SYMATTR InstName B10
SYMATTR Value V=V(OUT3-,OUT3+)
SYMBOL cap 3312 6864 R180
WINDOW 0 -36 43 Left 2
WINDOW 3 -62 19 Left 2
SYMATTR InstName C28
SYMATTR Value 220p
SYMBOL res 2832 6624 R90
WINDOW 0 63 57 VBottom 2
WINDOW 3 68 65 VTop 2
SYMATTR InstName R_SWITCH2
SYMATTR Value {R_IN_PGA}
SYMBOL res 2832 6992 R90
WINDOW 0 63 57 VBottom 2
WINDOW 3 68 65 VTop 2
SYMATTR InstName R_SWITCH3
SYMATTR Value {R_IN_PGA}
SYMBOL cap 2624 6576 R0
SYMATTR InstName C29
SYMATTR Value 16p
SYMBOL cap 2848 6576 R0
SYMATTR InstName C30
SYMATTR Value 16p
SYMBOL cap 2624 7008 R0
SYMATTR InstName C31
SYMATTR Value 16p
SYMBOL cap 2848 7008 R0
SYMATTR InstName C32
SYMATTR Value 16p
SYMBOL bv 5008 6592 R0
SYMATTR InstName B11
SYMATTR Value V=V(OUT4-,OUT4+)
SYMBOL res 5040 7040 R180
WINDOW 0 -63 70 Left 2
WINDOW 3 -44 38 Left 2
SYMATTR InstName RG19
SYMATTR Value 1k
SYMBOL res 5040 7152 R180
WINDOW 0 -63 70 Left 2
WINDOW 3 -46 41 Left 2
SYMATTR InstName RG20
SYMATTR Value 1k
SYMBOL AD8137 4704 6816 R0
SYMATTR InstName U9
SYMBOL cap 4304 6800 R0
SYMATTR InstName C33
SYMATTR Value 220p
SYMBOL res 4480 6768 R90
WINDOW 0 -26 54 VBottom 2
WINDOW 3 -28 55 VTop 2
SYMATTR InstName RG21
SYMATTR Value 2k
SYMBOL res 4480 6864 R90
WINDOW 0 -26 54 VBottom 2
WINDOW 3 -28 55 VTop 2
SYMATTR InstName RG22
SYMATTR Value 2k
SYMBOL cap 4816 6544 R90
WINDOW 0 0 32 VBottom 2
WINDOW 3 32 32 VTop 2
SYMATTR InstName C34
SYMATTR Value 100p
SYMBOL cap 4816 7072 R90
WINDOW 0 0 32 VBottom 2
WINDOW 3 32 32 VTop 2
SYMATTR InstName C35
SYMATTR Value 100p
SYMBOL res 4496 6480 R90
WINDOW 0 -26 54 VBottom 2
WINDOW 3 -28 55 VTop 2
SYMATTR InstName RG23
SYMATTR Value 5k
SYMBOL res 4480 7136 R90
WINDOW 0 -26 54 VBottom 2
WINDOW 3 -28 55 VTop 2
SYMATTR InstName RG24
SYMATTR Value 5k
SYMBOL cap 4528 6784 R0
WINDOW 0 34 17 Left 2
WINDOW 3 35 44 Left 2
SYMATTR InstName C36
SYMATTR Value 470p
SYMBOL res 4272 6784 R90
WINDOW 0 -26 54 VBottom 2
WINDOW 3 -28 55 VTop 2
SYMATTR InstName RG25
SYMATTR Value 5k
SYMBOL res 4272 6848 R90
WINDOW 0 -26 54 VBottom 2
WINDOW 3 -28 55 VTop 2
SYMATTR InstName RG26
SYMATTR Value 5k
TEXT -256 4696 Left 2 !.ac lin 2k 500 1Meg
TEXT -264 5328 Left 3 ;Difference Amplifier Stage
TEXT 2032 5632 Left 3 ;2nd Bandpass Stage with Reference Offset
TEXT 1568 5656 Left 3 ;Programable Gain Stage
TEXT 696 5376 Left 3 ;4th Order Low-Pass
TEXT 1376 6328 Left 2 !.step param R_IN_PGA1 list 6.8k 680 68
TEXT -256 4760 Left 2 !.param tol_C=0.01 ;   +/-1% capacitor component tolerance
TEXT -256 4800 Left 2 !.param tol_R=0.001 ;   +/-0.1% resistor component tolerance
TEXT -248 4840 Left 2 ;.step param X 0 1 1 ; a dummy parameter to cycle Monte Carlo runs
TEXT -256 5048 Left 2 !.param R_FEEDBACK_1 12k*ScaleFactor
TEXT 448 5016 Left 2 !.param RIN_2 2.2k*ScaleFactor
TEXT -256 5016 Left 2 !.param RIN_1 2.2k*ScaleFactor
TEXT 448 4984 Left 2 !.param C2 820p/ScaleFactor
TEXT -256 4984 Left 2 !.param C1 820p/ScaleFactor
TEXT 448 5048 Left 2 !.param R_FEEDBACK_2 12k*ScaleFactor
TEXT -256 5080 Left 2 !.param R_GAIN_1 1k*ScaleFactor
TEXT 448 5080 Left 2 !.param R_GAIN_2 1.5k*ScaleFactor
TEXT 144 4928 Left 2 !.param ScaleFactor 1
TEXT 5880 6544 Left 6 ;FPGA_INTERFACE
TEXT 5976 7024 Left 6 ;MCU_INTERFACE
TEXT 1248 4936 Left 2 !.options plotwinsize=0
TEXT 1256 4976 Left 2 !.save V(Out_LNA1)
TEXT 1256 5008 Left 2 !.save V(ain_mcu1)
TEXT 1256 5048 Left 2 !.save V(out_lna_diff_value)
TEXT 1256 5088 Left 2 !.save V(mcu_adc_diff_internal)
TEXT 1376 6376 Left 2 !.step param R_IN_PGA  list 10Meg 6.81k 681
