Version 4
SHEET 1 5752 8804
WIRE -128 5456 -400 5456
WIRE 16 5456 -48 5456
WIRE -1680 5488 -1680 5472
WIRE -208 5616 -208 5536
WIRE 288 5632 288 5616
WIRE -1904 5648 -1984 5648
WIRE -1728 5648 -1824 5648
WIRE -1536 5680 -1600 5680
WIRE -1424 5680 -1536 5680
WIRE -1216 5680 -1344 5680
WIRE -736 5680 -1216 5680
WIRE -400 5680 -400 5456
WIRE -400 5680 -656 5680
WIRE -240 5680 -400 5680
WIRE 16 5680 16 5456
WIRE 16 5680 -80 5680
WIRE -1728 5696 -1728 5648
WIRE -1600 5696 -1600 5680
WIRE -1984 5744 -1984 5648
WIRE -240 5744 -336 5744
WIRE 16 5744 -80 5744
WIRE -1536 5776 -1600 5776
WIRE -1424 5776 -1536 5776
WIRE -1008 5776 -1344 5776
WIRE -736 5776 -1008 5776
WIRE -400 5776 -656 5776
WIRE -336 5776 -336 5744
WIRE -336 5776 -400 5776
WIRE -1984 5792 -1984 5744
WIRE -1216 5808 -1216 5680
WIRE -1152 5808 -1216 5808
WIRE -1008 5808 -1008 5776
WIRE -944 5808 -1008 5808
WIRE 80 5808 -176 5808
WIRE -1216 5840 -1216 5808
WIRE -1008 5840 -1008 5808
WIRE -1152 5856 -1152 5808
WIRE -944 5856 -944 5808
WIRE -208 5888 -208 5808
WIRE -1216 5952 -1216 5920
WIRE -1152 5952 -1152 5920
WIRE -1152 5952 -1216 5952
WIRE -1008 5952 -1008 5920
WIRE -944 5952 -944 5920
WIRE -944 5952 -1008 5952
WIRE -1984 5968 -1984 5872
WIRE -1728 5968 -1728 5776
WIRE -1216 5984 -1216 5952
WIRE -1008 5984 -1008 5952
WIRE -400 5984 -400 5776
WIRE -128 5984 -400 5984
WIRE 16 5984 16 5744
WIRE 16 5984 -48 5984
WIRE 80 6096 80 5808
WIRE 144 6096 144 6080
WIRE 144 6096 80 6096
WIRE 144 6112 144 6096
WIRE 144 6208 144 6192
WIRE -96 6256 -288 6256
WIRE -288 6272 -288 6256
WIRE -96 6272 -96 6256
WIRE -96 6368 -96 6352
WIRE -16 6368 -96 6368
WIRE 16 6368 -16 6368
WIRE -96 6400 -96 6368
WIRE -288 6560 -288 6352
WIRE -96 6560 -96 6480
FLAG -288 6256 3.3V
FLAG -96 6560 0
FLAG -16 6368 Vref
FLAG -208 5536 3.3V
FLAG -208 5888 0
FLAG 288 5712 0
FLAG 288 5616 LNA_PGA_OUT1
FLAG -288 6560 0
FLAG 144 6000 3.3V
FLAG 144 6208 0
FLAG -1984 5744 PWM
FLAG -1984 5968 0
FLAG 16 5680 OUT_POS
FLAG 16 5744 OUT_NEG
FLAG -1216 5984 0
FLAG -1008 5984 0
FLAG -1680 5568 0
FLAG -1680 5472 PWM_Diff
FLAG -1728 5968 0
FLAG -1536 5680 PWM1
FLAG -1536 5776 PWM2
SYMBOL voltage -288 6256 R0
WINDOW 123 0 0 Left 2
SYMATTR InstName Vcc4
SYMATTR Value 3.3
SYMBOL res -112 6256 R0
SYMATTR InstName R2
SYMATTR Value 1k
SYMBOL res -112 6384 R0
SYMATTR InstName R8
SYMATTR Value 1k
SYMBOL res -640 5760 R90
WINDOW 0 65 57 VBottom 2
WINDOW 3 65 58 VTop 2
SYMATTR InstName RG4
SYMATTR Value 1k
SYMBOL res -32 5968 R90
WINDOW 0 0 56 VBottom 2
WINDOW 3 32 56 VTop 2
SYMATTR InstName RF3
SYMATTR Value 68.1k
SYMBOL res -640 5664 R90
WINDOW 0 -26 54 VBottom 2
WINDOW 3 -28 55 VTop 2
SYMATTR InstName RG5
SYMATTR Value 1k
SYMBOL res -32 5440 R90
WINDOW 0 0 56 VBottom 2
WINDOW 3 36 57 VTop 2
SYMATTR InstName RF4
SYMATTR Value 68.1k
SYMBOL AD8137 -208 5712 R0
SYMATTR InstName U4
SYMBOL bv 288 5616 R0
SYMATTR InstName B5
SYMATTR Value V=V(OUT_POS,OUT_NEG)
SYMBOL res 160 6096 R180
WINDOW 0 -63 70 Left 2
WINDOW 3 -48 44 Left 2
SYMATTR InstName RG10
SYMATTR Value 1k
SYMBOL res 160 6208 R180
WINDOW 0 -63 70 Left 2
WINDOW 3 -40 26 Left 2
SYMATTR InstName RG15
SYMATTR Value 1k
SYMBOL voltage -1984 5776 R0
WINDOW 123 54 44 Left 2
WINDOW 39 0 0 Left 0
WINDOW 3 -548 271 Left 2
WINDOW 0 54 14 Left 2
SYMATTR Value2 AC 1
SYMATTR Value ""
SYMATTR InstName V1
SYMBOL res -1328 5664 R90
WINDOW 0 0 56 VBottom 2
WINDOW 3 32 56 VTop 2
SYMATTR InstName R1
SYMATTR Value 39k
SYMBOL res -1328 5760 R90
WINDOW 0 0 56 VBottom 2
WINDOW 3 32 56 VTop 2
SYMATTR InstName R3
SYMATTR Value 39k
SYMBOL res -1200 5936 R180
WINDOW 0 36 76 Left 2
WINDOW 3 36 40 Left 2
SYMATTR InstName R4
SYMATTR Value 20
SYMBOL res -992 5936 R180
WINDOW 0 36 76 Left 2
WINDOW 3 36 40 Left 2
SYMATTR InstName R5
SYMATTR Value 20
SYMBOL bv -1680 5472 R0
SYMATTR InstName B1
SYMATTR Value V=V(PWM1,PWM2)
SYMBOL ind2 -1584 5792 R180
WINDOW 0 36 80 Left 2
WINDOW 3 36 40 Left 2
SYMATTR InstName L1
SYMATTR Value 1m
SYMATTR Type ind
SYMBOL ind2 -1744 5680 R0
SYMATTR InstName L2
SYMATTR Value 1m
SYMATTR Type ind
SYMBOL res -1808 5632 R90
WINDOW 0 0 56 VBottom 2
WINDOW 3 32 56 VTop 2
SYMATTR InstName R6
SYMATTR Value 1m
SYMBOL cap -960 5856 R0
SYMATTR InstName C1
SYMATTR Value 4.7p
SYMBOL cap -1168 5856 R0
SYMATTR InstName C2
SYMATTR Value 4.7p
TEXT -1032 6160 Left 2 !.PARAM Tsig {1/120k}
TEXT -1104 5544 Left 2 ;.tran 1m
TEXT -1696 5808 Left 2 !K12 L1 L2 1
TEXT -2032 5592 Left 2 !.ac dec 100 10k 500k
