Version 4
SHEET 1 6608 9460
WIRE -2208 5264 -2208 5248
WIRE -1616 5264 -1616 5248
WIRE -1056 5280 -1056 5264
WIRE -496 5392 -560 5392
WIRE 16 5392 -432 5392
WIRE -560 5456 -560 5392
WIRE -128 5456 -560 5456
WIRE 16 5456 16 5392
WIRE 16 5456 -48 5456
WIRE 112 5488 112 5472
WIRE -208 5616 -208 5536
WIRE -3072 5680 -3216 5680
WIRE -2960 5680 -2992 5680
WIRE -2944 5680 -2960 5680
WIRE -2816 5680 -2864 5680
WIRE -2688 5680 -2816 5680
WIRE -2352 5680 -2608 5680
WIRE -2160 5680 -2352 5680
WIRE -2000 5680 -2160 5680
WIRE -1888 5680 -2000 5680
WIRE -1744 5680 -1824 5680
WIRE -1696 5680 -1744 5680
WIRE -1600 5680 -1696 5680
WIRE -1504 5680 -1520 5680
WIRE -816 5680 -1504 5680
WIRE -736 5680 -816 5680
WIRE -560 5680 -560 5456
WIRE -560 5680 -656 5680
WIRE -496 5680 -560 5680
WIRE -240 5680 -416 5680
WIRE -32 5680 -80 5680
WIRE 16 5680 16 5456
WIRE 16 5680 -32 5680
WIRE -3216 5696 -3216 5680
WIRE -2960 5728 -2960 5680
WIRE -240 5744 -336 5744
WIRE -48 5744 -80 5744
WIRE 16 5744 -48 5744
WIRE -816 5776 -1216 5776
WIRE -736 5776 -816 5776
WIRE -560 5776 -656 5776
WIRE -496 5776 -560 5776
WIRE -336 5776 -336 5744
WIRE -336 5776 -416 5776
WIRE 80 5808 -176 5808
WIRE -2352 5824 -2352 5808
WIRE -2256 5824 -2272 5824
WIRE -2240 5824 -2256 5824
WIRE -2160 5824 -2160 5808
WIRE -2256 5840 -2256 5824
WIRE -2352 5888 -2352 5824
WIRE -2160 5888 -2160 5824
WIRE -208 5888 -208 5808
WIRE -560 5984 -560 5776
WIRE -128 5984 -560 5984
WIRE 16 5984 16 5744
WIRE 16 5984 -48 5984
WIRE -3216 6016 -3216 5776
WIRE -3072 6016 -3216 6016
WIRE -2960 6016 -2992 6016
WIRE -2944 6016 -2960 6016
WIRE -2816 6016 -2864 6016
WIRE -2688 6016 -2816 6016
WIRE -2352 6016 -2608 6016
WIRE -2160 6016 -2352 6016
WIRE -1968 6016 -2160 6016
WIRE -1888 6016 -1968 6016
WIRE -1744 6016 -1824 6016
WIRE -1696 6016 -1744 6016
WIRE -1600 6016 -1696 6016
WIRE -1504 6016 -1520 6016
WIRE -1216 6016 -1216 5776
WIRE -1216 6016 -1504 6016
WIRE -2960 6048 -2960 6016
WIRE -560 6048 -560 5984
WIRE -496 6048 -560 6048
WIRE 16 6048 16 5984
WIRE 16 6048 -432 6048
WIRE 80 6096 80 5808
WIRE 144 6096 144 6080
WIRE 144 6096 80 6096
WIRE 144 6112 144 6096
WIRE 144 6208 144 6192
WIRE -2480 6224 -2576 6224
WIRE -2352 6224 -2400 6224
WIRE -2224 6224 -2352 6224
WIRE -2000 6224 -2000 5680
WIRE -2000 6224 -2144 6224
WIRE -2576 6272 -2576 6224
WIRE 784 6368 592 6368
WIRE -2480 6384 -2576 6384
WIRE -2352 6384 -2400 6384
WIRE -2224 6384 -2352 6384
WIRE -1968 6384 -1968 6016
WIRE -1968 6384 -2144 6384
WIRE 592 6384 592 6368
WIRE 784 6384 784 6368
WIRE -2576 6432 -2576 6384
WIRE 784 6480 784 6464
WIRE 864 6480 784 6480
WIRE 896 6480 864 6480
WIRE 784 6512 784 6480
WIRE 592 6672 592 6464
WIRE 784 6672 784 6592
WIRE -448 7088 -512 7088
WIRE 64 7088 -384 7088
WIRE -512 7152 -512 7088
WIRE -80 7152 -512 7152
WIRE 64 7152 64 7088
WIRE 64 7152 0 7152
WIRE -2768 7184 -2768 7168
WIRE 160 7184 160 7168
WIRE -160 7312 -160 7232
WIRE -3024 7376 -3168 7376
WIRE -2912 7376 -2944 7376
WIRE -2896 7376 -2912 7376
WIRE -2768 7376 -2816 7376
WIRE -2640 7376 -2768 7376
WIRE -2304 7376 -2560 7376
WIRE -2112 7376 -2304 7376
WIRE -1952 7376 -2112 7376
WIRE -1840 7376 -1952 7376
WIRE -1648 7376 -1776 7376
WIRE -1552 7376 -1648 7376
WIRE -1456 7376 -1472 7376
WIRE -688 7376 -1456 7376
WIRE -512 7376 -512 7152
WIRE -512 7376 -608 7376
WIRE -448 7376 -512 7376
WIRE -192 7376 -368 7376
WIRE 16 7376 -32 7376
WIRE 64 7376 64 7152
WIRE 64 7376 16 7376
WIRE -3168 7392 -3168 7376
WIRE -2304 7408 -2304 7376
WIRE -2112 7408 -2112 7376
WIRE -2912 7424 -2912 7376
WIRE -192 7440 -288 7440
WIRE 0 7440 -32 7440
WIRE 64 7440 0 7440
WIRE -688 7472 -1168 7472
WIRE -512 7472 -608 7472
WIRE -448 7472 -512 7472
WIRE -288 7472 -288 7440
WIRE -288 7472 -368 7472
WIRE 128 7504 -128 7504
WIRE -2304 7520 -2304 7472
WIRE -2208 7520 -2224 7520
WIRE -2192 7520 -2208 7520
WIRE -2112 7520 -2112 7472
WIRE -2208 7536 -2208 7520
WIRE -160 7584 -160 7504
WIRE -2304 7616 -2304 7520
WIRE -2112 7616 -2112 7520
WIRE -512 7680 -512 7472
WIRE -80 7680 -512 7680
WIRE 64 7680 64 7440
WIRE 64 7680 0 7680
WIRE -3168 7712 -3168 7472
WIRE -3024 7712 -3168 7712
WIRE -2912 7712 -2944 7712
WIRE -2896 7712 -2912 7712
WIRE -2768 7712 -2816 7712
WIRE -2640 7712 -2768 7712
WIRE -2304 7712 -2304 7680
WIRE -2304 7712 -2560 7712
WIRE -2112 7712 -2112 7680
WIRE -2112 7712 -2304 7712
WIRE -1920 7712 -2112 7712
WIRE -1840 7712 -1920 7712
WIRE -1648 7712 -1776 7712
WIRE -1552 7712 -1648 7712
WIRE -1456 7712 -1472 7712
WIRE -1168 7712 -1168 7472
WIRE -1168 7712 -1456 7712
WIRE -2912 7744 -2912 7712
WIRE -512 7744 -512 7680
WIRE -448 7744 -512 7744
WIRE 64 7744 64 7680
WIRE 64 7744 -384 7744
WIRE 128 7792 128 7504
WIRE 192 7792 192 7776
WIRE 192 7792 128 7792
WIRE 192 7808 192 7792
WIRE 192 7904 192 7888
WIRE -2432 7920 -2528 7920
WIRE -2304 7920 -2352 7920
WIRE -2176 7920 -2304 7920
WIRE -1952 7920 -1952 7376
WIRE -1952 7920 -2096 7920
WIRE -2528 7968 -2528 7920
WIRE -2432 8080 -2528 8080
WIRE -2304 8080 -2352 8080
WIRE -2176 8080 -2304 8080
WIRE -1920 8080 -1920 7712
WIRE -1920 8080 -2096 8080
WIRE -2528 8128 -2528 8080
WIRE -448 8368 -512 8368
WIRE 64 8368 -384 8368
WIRE -512 8432 -512 8368
WIRE -80 8432 -512 8432
WIRE 64 8432 64 8368
WIRE 64 8432 0 8432
WIRE -2768 8464 -2768 8448
WIRE 160 8464 160 8448
WIRE -160 8592 -160 8512
WIRE -3024 8656 -3168 8656
WIRE -2912 8656 -2944 8656
WIRE -2896 8656 -2912 8656
WIRE -2768 8656 -2816 8656
WIRE -2640 8656 -2768 8656
WIRE -2304 8656 -2560 8656
WIRE -2112 8656 -2304 8656
WIRE -1952 8656 -2112 8656
WIRE -1840 8656 -1952 8656
WIRE -1648 8656 -1776 8656
WIRE -1552 8656 -1648 8656
WIRE -1456 8656 -1472 8656
WIRE -688 8656 -1456 8656
WIRE -512 8656 -512 8432
WIRE -512 8656 -608 8656
WIRE -448 8656 -512 8656
WIRE -192 8656 -368 8656
WIRE 16 8656 -32 8656
WIRE 64 8656 64 8432
WIRE 64 8656 16 8656
WIRE -3168 8672 -3168 8656
WIRE -2304 8688 -2304 8656
WIRE -2112 8688 -2112 8656
WIRE -2912 8704 -2912 8656
WIRE -192 8720 -288 8720
WIRE 0 8720 -32 8720
WIRE 64 8720 0 8720
WIRE -688 8752 -1168 8752
WIRE -512 8752 -608 8752
WIRE -448 8752 -512 8752
WIRE -288 8752 -288 8720
WIRE -288 8752 -368 8752
WIRE 128 8784 -128 8784
WIRE -2304 8800 -2304 8752
WIRE -2208 8800 -2224 8800
WIRE -2192 8800 -2208 8800
WIRE -2112 8800 -2112 8752
WIRE -2208 8816 -2208 8800
WIRE -160 8864 -160 8784
WIRE -2304 8896 -2304 8800
WIRE -2112 8896 -2112 8800
WIRE -512 8960 -512 8752
WIRE -80 8960 -512 8960
WIRE 64 8960 64 8720
WIRE 64 8960 0 8960
WIRE -3168 8992 -3168 8752
WIRE -3024 8992 -3168 8992
WIRE -2912 8992 -2944 8992
WIRE -2896 8992 -2912 8992
WIRE -2768 8992 -2816 8992
WIRE -2640 8992 -2768 8992
WIRE -2304 8992 -2304 8960
WIRE -2304 8992 -2560 8992
WIRE -2112 8992 -2112 8960
WIRE -2112 8992 -2304 8992
WIRE -1920 8992 -2112 8992
WIRE -1840 8992 -1920 8992
WIRE -1648 8992 -1776 8992
WIRE -1552 8992 -1648 8992
WIRE -1456 8992 -1472 8992
WIRE -1168 8992 -1168 8752
WIRE -1168 8992 -1456 8992
WIRE -2912 9024 -2912 8992
WIRE -512 9024 -512 8960
WIRE -448 9024 -512 9024
WIRE 64 9024 64 8960
WIRE 64 9024 -384 9024
WIRE 128 9072 128 8784
WIRE 192 9072 192 9056
WIRE 192 9072 128 9072
WIRE 192 9088 192 9072
WIRE 192 9184 192 9168
WIRE -2432 9200 -2528 9200
WIRE -2304 9200 -2352 9200
WIRE -2176 9200 -2304 9200
WIRE -1952 9200 -1952 8656
WIRE -1952 9200 -2096 9200
WIRE -2528 9248 -2528 9200
WIRE -2432 9360 -2528 9360
WIRE -2304 9360 -2352 9360
WIRE -2176 9360 -2304 9360
WIRE -1920 9360 -1920 8992
WIRE -1920 9360 -2096 9360
WIRE -2528 9408 -2528 9360
FLAG -2208 5344 0
FLAG -2208 5248 Sig_IN
FLAG -2816 5680 IN_p
FLAG -2816 6016 IN_n
FLAG -1744 5680 IN_p3
FLAG -1744 6016 IN_n3
FLAG 592 6368 3.3V
FLAG 784 6672 0
FLAG 864 6480 Vref
FLAG 592 6672 0
FLAG -1616 5344 0
FLAG -1616 5248 Sig_IN3
FLAG -1056 5360 0
FLAG -1056 5264 Sig_IN2
FLAG -816 5680 IN_p2
FLAG -816 5776 IN_n2
FLAG -1504 6080 0
FLAG -1504 5744 0
FLAG 144 6000 3.3V
FLAG 144 6208 0
FLAG -208 5536 3.3V
FLAG -208 5888 0
FLAG -32 5680 OUT1-
FLAG -48 5744 OUT1+
FLAG 112 5568 0
FLAG 112 5472 Out_BP1_Diff_Value
FLAG -2256 5840 0
FLAG -1696 6080 0
FLAG -1696 5744 0
FLAG -2352 6304 0
FLAG -2352 6464 0
FLAG -2576 6272 0
FLAG -2576 6432 0
FLAG -2960 6128 0
FLAG -2960 5808 0
FLAG -2768 7376 IN_p_2
FLAG -2768 7712 IN_n_2
FLAG -1456 7776 0
FLAG -1456 7440 0
FLAG 192 7696 3.3V
FLAG 192 7904 0
FLAG -160 7232 3.3V
FLAG -160 7584 0
FLAG 16 7376 OUT1_2-
FLAG 0 7440 OUT1_2+
FLAG 160 7264 0
FLAG 160 7168 Out_BP1_Diff_Value2
FLAG -2208 7536 0
FLAG -1648 7776 0
FLAG -1648 7440 0
FLAG -2304 8000 0
FLAG -2304 8160 0
FLAG -2528 7968 0
FLAG -2528 8128 0
FLAG -2912 7824 0
FLAG -2912 7504 0
FLAG -2768 7264 0
FLAG -2768 7168 Sig_IN_2
FLAG -2768 8656 IN_p_3
FLAG -2768 8992 IN_n_3
FLAG -1456 9056 0
FLAG -1456 8720 0
FLAG 192 8976 3.3V
FLAG 192 9184 0
FLAG -160 8512 3.3V
FLAG -160 8864 0
FLAG 16 8656 OUT1_3-
FLAG 0 8720 OUT1_3+
FLAG 160 8544 0
FLAG 160 8448 Out_BP1_Diff_Value3
FLAG -2208 8816 0
FLAG -1648 9056 0
FLAG -1648 8720 0
FLAG -2304 9280 0
FLAG -2304 9440 0
FLAG -2528 9248 0
FLAG -2528 9408 0
FLAG -2912 9104 0
FLAG -2912 8784 0
FLAG -2768 8544 0
FLAG -2768 8448 Sig_IN_3
SYMBOL res -2592 5664 R90
WINDOW 0 0 56 VBottom 2
WINDOW 3 32 56 VTop 2
SYMATTR InstName R37
SYMATTR Value 5k
SYMBOL res -2592 6000 R90
WINDOW 0 0 56 VBottom 2
WINDOW 3 32 56 VTop 2
SYMATTR InstName R38
SYMATTR Value 5k
SYMBOL bv -2208 5248 R0
SYMATTR InstName B3
SYMATTR Value V=V(IN_p,IN_n)
SYMBOL voltage 592 6368 R0
WINDOW 123 0 0 Left 2
SYMATTR InstName Vcc4
SYMATTR Value 3.3
SYMBOL res 768 6368 R0
SYMATTR InstName R2
SYMATTR Value 1k
SYMBOL res 768 6496 R0
SYMATTR InstName R8
SYMATTR Value 1k
SYMBOL bv -1616 5248 R0
SYMATTR InstName B6
SYMATTR Value V=V(IN_p3,IN_n3)
SYMBOL bv -1056 5264 R0
SYMATTR InstName B7
SYMATTR Value V=V(IN_p2,IN_n2)
SYMBOL voltage -3216 5680 R0
WINDOW 123 47 46 Left 2
WINDOW 39 0 0 Left 0
WINDOW 3 -230 -28 Left 2
WINDOW 0 47 13 Left 2
SYMATTR Value2 AC 1
SYMATTR Value SINE(0 1000 120k)
SYMATTR InstName V1
SYMBOL cap -1520 6016 R0
WINDOW 0 39 14 Left 2
WINDOW 3 41 39 Left 2
SYMATTR InstName C12
SYMATTR Value 4p
SYMBOL cap -1520 5680 R0
WINDOW 0 34 17 Left 2
WINDOW 3 34 44 Left 2
SYMATTR InstName C14
SYMATTR Value 4p
SYMBOL res 160 6096 R180
WINDOW 0 -63 70 Left 2
WINDOW 3 -55 42 Left 2
SYMATTR InstName RG10
SYMATTR Value 1k
SYMBOL res 160 6208 R180
WINDOW 0 -63 70 Left 2
WINDOW 3 -56 43 Left 2
SYMATTR InstName RG15
SYMATTR Value 1k
SYMBOL cap -1824 5664 R90
WINDOW 0 0 32 VBottom 2
WINDOW 3 -11 -8 VTop 2
SYMATTR InstName C1
SYMATTR Value 1n
SYMBOL cap -1824 6000 R90
WINDOW 0 0 32 VBottom 2
WINDOW 3 -15 -14 VTop 2
SYMATTR InstName C10
SYMATTR Value 1n
SYMBOL res -32 5968 R90
WINDOW 0 0 56 VBottom 2
WINDOW 3 30 135 VTop 2
SYMATTR InstName RF7
SYMATTR Value 68.1k
SYMBOL res -32 5440 R90
WINDOW 0 63 57 VBottom 2
WINDOW 3 -35 130 VTop 2
SYMATTR InstName RF8
SYMATTR Value 68.1k
SYMBOL AD8137 -208 5712 R0
SYMATTR InstName U5
SYMBOL cap -432 5376 R90
WINDOW 0 16 0 VBottom 2
WINDOW 3 -40 -52 VTop 2
SYMATTR InstName C27
SYMATTR Value 4.7p
SYMBOL cap -432 6032 R90
WINDOW 0 46 -2 VBottom 2
WINDOW 3 48 -55 VTop 2
SYMATTR InstName C28
SYMATTR Value 4.7p
SYMBOL bv 112 5472 R0
SYMATTR InstName B2
SYMATTR Value V=V(OUT1-,OUT1+)
SYMBOL res -400 5664 R90
WINDOW 0 -26 54 VBottom 2
WINDOW 3 -28 55 VTop 2
SYMATTR InstName Rn1
SYMATTR Value 100
SYMBOL res -400 5760 R90
WINDOW 0 -26 54 VBottom 2
WINDOW 3 -28 55 VTop 2
SYMATTR InstName Rn2
SYMATTR Value 100
SYMBOL schottky -2336 5744 R180
WINDOW 0 39 46 Left 2
WINDOW 3 36 24 Left 2
SYMATTR InstName D1
SYMATTR Value BAT54
SYMATTR Description Diode
SYMATTR Type diode
SYMBOL schottky -2176 5680 R0
WINDOW 0 -37 17 Left 2
WINDOW 3 -78 40 Left 2
SYMATTR InstName D4
SYMATTR Value BAT54
SYMATTR Description Diode
SYMATTR Type diode
SYMBOL schottky -2368 5952 R0
WINDOW 0 -39 20 Left 2
WINDOW 3 -79 45 Left 2
SYMATTR InstName D5
SYMATTR Value BAT54
SYMATTR Description Diode
SYMATTR Type diode
SYMBOL schottky -2144 6016 R180
WINDOW 0 39 46 Left 2
WINDOW 3 36 24 Left 2
SYMATTR InstName D8
SYMATTR Value BAT54
SYMATTR Description Diode
SYMATTR Type diode
SYMBOL res -2256 5808 R90
WINDOW 0 82 55 VBottom 2
WINDOW 3 32 56 VTop 2
SYMATTR InstName R1
SYMATTR Value 0.001
SYMBOL res -2144 5808 R90
WINDOW 0 81 54 VBottom 2
WINDOW 3 32 56 VTop 2
SYMATTR InstName R3
SYMATTR Value 0.001
SYMBOL res -1504 5664 R90
WINDOW 0 0 56 VBottom 2
WINDOW 3 -28 21 VTop 2
SYMATTR InstName R4
SYMATTR Value 5
SYMBOL res -1504 6000 R90
WINDOW 0 0 56 VBottom 2
WINDOW 3 -27 22 VTop 2
SYMATTR InstName R5
SYMATTR Value 5
SYMBOL cap -1712 6016 R0
WINDOW 0 39 14 Left 2
WINDOW 3 41 39 Left 2
SYMATTR InstName C6
SYMATTR Value 4p
SYMBOL cap -1712 5680 R0
WINDOW 0 39 14 Left 2
WINDOW 3 41 39 Left 2
SYMATTR InstName C7
SYMATTR Value 4p
SYMBOL res -640 5664 R90
WINDOW 0 -6 53 VBottom 2
WINDOW 3 30 101 VTop 2
SYMATTR InstName RIN1
SYMATTR Value 1k
SYMBOL res -640 5760 R90
WINDOW 0 -5 57 VBottom 2
WINDOW 3 30 101 VTop 2
SYMATTR InstName RIN2
SYMATTR Value 1k
SYMBOL res -2128 6208 R90
WINDOW 0 0 56 VBottom 2
WINDOW 3 32 56 VTop 2
SYMATTR InstName R11
SYMATTR Value 5Meg
SYMBOL res -2128 6368 R90
WINDOW 0 0 56 VBottom 2
WINDOW 3 32 56 VTop 2
SYMATTR InstName R12
SYMATTR Value 5Meg
SYMBOL res -2368 6208 R0
SYMATTR InstName R13
SYMATTR Value 40
SYMBOL res -2368 6368 R0
SYMATTR InstName R14
SYMATTR Value 40
SYMBOL res -2384 6208 R90
WINDOW 0 0 56 VBottom 2
WINDOW 3 32 56 VTop 2
SYMATTR InstName R15
SYMATTR Value 40k
SYMBOL res -2384 6368 R90
WINDOW 0 0 56 VBottom 2
WINDOW 3 32 56 VTop 2
SYMATTR InstName R16
SYMATTR Value 40k
SYMBOL res -2976 5664 R90
WINDOW 0 0 56 VBottom 2
WINDOW 3 32 56 VTop 2
SYMATTR InstName R17
SYMATTR Value 100
SYMBOL res -2848 5664 R90
WINDOW 0 0 56 VBottom 2
WINDOW 3 32 56 VTop 2
SYMATTR InstName R18
SYMATTR Value 25
SYMBOL res -2944 5824 R180
WINDOW 0 36 76 Left 2
WINDOW 3 36 40 Left 2
SYMATTR InstName R19
SYMATTR Value 25
SYMBOL res -3088 6032 R270
WINDOW 0 32 56 VTop 2
WINDOW 3 0 56 VBottom 2
SYMATTR InstName R20
SYMATTR Value 100
SYMBOL res -2960 6032 R270
WINDOW 0 32 56 VTop 2
WINDOW 3 0 56 VBottom 2
SYMATTR InstName R21
SYMATTR Value 25
SYMBOL res -2976 6032 R0
SYMATTR InstName R22
SYMATTR Value 25
SYMBOL schottky -2336 5808 R180
WINDOW 0 39 46 Left 2
WINDOW 3 36 24 Left 2
SYMATTR InstName D2
SYMATTR Value BAT54
SYMATTR Description Diode
SYMATTR Type diode
SYMBOL schottky -2176 5744 R0
WINDOW 0 -37 17 Left 2
WINDOW 3 -78 40 Left 2
SYMATTR InstName D3
SYMATTR Value BAT54
SYMATTR Description Diode
SYMATTR Type diode
SYMBOL schottky -2368 5888 R0
WINDOW 0 -37 17 Left 2
WINDOW 3 -78 40 Left 2
SYMATTR InstName D6
SYMATTR Value BAT54
SYMATTR Description Diode
SYMATTR Type diode
SYMBOL schottky -2144 5952 R180
WINDOW 0 39 46 Left 2
WINDOW 3 36 24 Left 2
SYMATTR InstName D7
SYMATTR Value BAT54
SYMATTR Description Diode
SYMATTR Type diode
SYMBOL res -2544 7360 R90
WINDOW 0 0 56 VBottom 2
WINDOW 3 32 56 VTop 2
SYMATTR InstName R6
SYMATTR Value 5k
SYMBOL res -2544 7696 R90
WINDOW 0 0 56 VBottom 2
WINDOW 3 32 56 VTop 2
SYMATTR InstName R7
SYMATTR Value 5k
SYMBOL voltage -3168 7376 R0
WINDOW 123 47 46 Left 2
WINDOW 39 0 0 Left 0
WINDOW 3 -230 -28 Left 2
WINDOW 0 47 13 Left 2
SYMATTR Value2 AC 1
SYMATTR Value SINE(0 1000 120k)
SYMATTR InstName V2
SYMBOL cap -1472 7712 R0
WINDOW 0 39 14 Left 2
WINDOW 3 41 39 Left 2
SYMATTR InstName C2
SYMATTR Value 4p
SYMBOL cap -1472 7376 R0
WINDOW 0 34 17 Left 2
WINDOW 3 34 44 Left 2
SYMATTR InstName C3
SYMATTR Value 4p
SYMBOL res 208 7792 R180
WINDOW 0 -63 70 Left 2
WINDOW 3 -55 42 Left 2
SYMATTR InstName RG1
SYMATTR Value 1k
SYMBOL res 208 7904 R180
WINDOW 0 -63 70 Left 2
WINDOW 3 -56 43 Left 2
SYMATTR InstName RG2
SYMATTR Value 1k
SYMBOL cap -1776 7360 R90
WINDOW 0 0 32 VBottom 2
WINDOW 3 -11 -8 VTop 2
SYMATTR InstName C4
SYMATTR Value 1n
SYMBOL cap -1776 7696 R90
WINDOW 0 0 32 VBottom 2
WINDOW 3 -15 -14 VTop 2
SYMATTR InstName C5
SYMATTR Value 1n
SYMBOL res 16 7664 R90
WINDOW 0 0 56 VBottom 2
WINDOW 3 30 135 VTop 2
SYMATTR InstName RF1
SYMATTR Value 68.1k
SYMBOL res 16 7136 R90
WINDOW 0 63 57 VBottom 2
WINDOW 3 -35 130 VTop 2
SYMATTR InstName RF2
SYMATTR Value 68.1k
SYMBOL AD8137 -160 7408 R0
SYMATTR InstName U2
SYMBOL cap -384 7072 R90
WINDOW 0 16 0 VBottom 2
WINDOW 3 -40 -52 VTop 2
SYMATTR InstName C8
SYMATTR Value 4.7p
SYMBOL cap -384 7728 R90
WINDOW 0 46 -2 VBottom 2
WINDOW 3 48 -55 VTop 2
SYMATTR InstName C9
SYMATTR Value 4.7p
SYMBOL bv 160 7168 R0
SYMATTR InstName B8
SYMATTR Value V=V(OUT1_2-,OUT1_2+)
SYMBOL res -352 7360 R90
WINDOW 0 -26 54 VBottom 2
WINDOW 3 -28 55 VTop 2
SYMATTR InstName Rn3
SYMATTR Value 100
SYMBOL res -352 7456 R90
WINDOW 0 -26 54 VBottom 2
WINDOW 3 -28 55 VTop 2
SYMATTR InstName Rn4
SYMATTR Value 100
SYMBOL res -2208 7504 R90
WINDOW 0 82 55 VBottom 2
WINDOW 3 32 56 VTop 2
SYMATTR InstName R9
SYMATTR Value 0.001
SYMBOL res -2096 7504 R90
WINDOW 0 81 54 VBottom 2
WINDOW 3 32 56 VTop 2
SYMATTR InstName R10
SYMATTR Value 0.001
SYMBOL res -1456 7360 R90
WINDOW 0 0 56 VBottom 2
WINDOW 3 -28 21 VTop 2
SYMATTR InstName R23
SYMATTR Value 5
SYMBOL res -1456 7696 R90
WINDOW 0 0 56 VBottom 2
WINDOW 3 -27 22 VTop 2
SYMATTR InstName R24
SYMATTR Value 5
SYMBOL cap -1664 7712 R0
WINDOW 0 39 14 Left 2
WINDOW 3 41 39 Left 2
SYMATTR InstName C11
SYMATTR Value 4p
SYMBOL cap -1664 7376 R0
WINDOW 0 39 14 Left 2
WINDOW 3 41 39 Left 2
SYMATTR InstName C13
SYMATTR Value 4p
SYMBOL res -592 7360 R90
WINDOW 0 -6 53 VBottom 2
WINDOW 3 30 101 VTop 2
SYMATTR InstName RIN3
SYMATTR Value 1k
SYMBOL res -592 7456 R90
WINDOW 0 -5 57 VBottom 2
WINDOW 3 30 101 VTop 2
SYMATTR InstName RIN4
SYMATTR Value 1k
SYMBOL res -2080 7904 R90
WINDOW 0 0 56 VBottom 2
WINDOW 3 32 56 VTop 2
SYMATTR InstName R25
SYMATTR Value 68.1k
SYMBOL res -2080 8064 R90
WINDOW 0 0 56 VBottom 2
WINDOW 3 32 56 VTop 2
SYMATTR InstName R26
SYMATTR Value 68.1k
SYMBOL res -2320 7904 R0
SYMATTR InstName R27
SYMATTR Value 40
SYMBOL res -2320 8064 R0
SYMATTR InstName R28
SYMATTR Value 40
SYMBOL res -2336 7904 R90
WINDOW 0 0 56 VBottom 2
WINDOW 3 32 56 VTop 2
SYMATTR InstName R29
SYMATTR Value 40k
SYMBOL res -2336 8064 R90
WINDOW 0 0 56 VBottom 2
WINDOW 3 32 56 VTop 2
SYMATTR InstName R30
SYMATTR Value 40k
SYMBOL res -2928 7360 R90
WINDOW 0 0 56 VBottom 2
WINDOW 3 32 56 VTop 2
SYMATTR InstName R31
SYMATTR Value 100
SYMBOL res -2800 7360 R90
WINDOW 0 0 56 VBottom 2
WINDOW 3 32 56 VTop 2
SYMATTR InstName R32
SYMATTR Value 25
SYMBOL res -2896 7520 R180
WINDOW 0 36 76 Left 2
WINDOW 3 36 40 Left 2
SYMATTR InstName R33
SYMATTR Value 25
SYMBOL res -3040 7728 R270
WINDOW 0 32 56 VTop 2
WINDOW 3 0 56 VBottom 2
SYMATTR InstName R34
SYMATTR Value 100
SYMBOL res -2912 7728 R270
WINDOW 0 32 56 VTop 2
WINDOW 3 0 56 VBottom 2
SYMATTR InstName R35
SYMATTR Value 25
SYMBOL res -2928 7728 R0
SYMATTR InstName R36
SYMATTR Value 25
SYMBOL AutoGenerated\\BAS16L -2304 7440 R270
SYMATTR InstName U3
SYMBOL AutoGenerated\\BAS16L -2112 7440 R90
SYMATTR InstName U4
SYMBOL AutoGenerated\\BAS16L -2304 7648 R90
SYMATTR InstName U6
SYMBOL AutoGenerated\\BAS16L -2112 7648 R270
SYMATTR InstName U7
SYMBOL bv -2768 7168 R0
SYMATTR InstName B1
SYMATTR Value V=V(IN_p_2,IN_n_2)
SYMBOL res -2544 8640 R90
WINDOW 0 0 56 VBottom 2
WINDOW 3 32 56 VTop 2
SYMATTR InstName R39
SYMATTR Value 5k
SYMBOL res -2544 8976 R90
WINDOW 0 0 56 VBottom 2
WINDOW 3 32 56 VTop 2
SYMATTR InstName R40
SYMATTR Value 5k
SYMBOL voltage -3168 8656 R0
WINDOW 123 47 46 Left 2
WINDOW 39 0 0 Left 0
WINDOW 3 -230 -28 Left 2
WINDOW 0 47 13 Left 2
SYMATTR Value2 AC 1
SYMATTR Value SINE(0 1000 120k)
SYMATTR InstName V3
SYMBOL cap -1472 8992 R0
WINDOW 0 39 14 Left 2
WINDOW 3 41 39 Left 2
SYMATTR InstName C15
SYMATTR Value 4p
SYMBOL cap -1472 8656 R0
WINDOW 0 34 17 Left 2
WINDOW 3 34 44 Left 2
SYMATTR InstName C16
SYMATTR Value 4p
SYMBOL res 208 9072 R180
WINDOW 0 -63 70 Left 2
WINDOW 3 -55 42 Left 2
SYMATTR InstName RG3
SYMATTR Value 1k
SYMBOL res 208 9184 R180
WINDOW 0 -63 70 Left 2
WINDOW 3 -56 43 Left 2
SYMATTR InstName RG4
SYMATTR Value 1k
SYMBOL cap -1776 8640 R90
WINDOW 0 0 32 VBottom 2
WINDOW 3 -11 -8 VTop 2
SYMATTR InstName C17
SYMATTR Value 1n
SYMBOL cap -1776 8976 R90
WINDOW 0 0 32 VBottom 2
WINDOW 3 -15 -14 VTop 2
SYMATTR InstName C18
SYMATTR Value 1n
SYMBOL res 16 8944 R90
WINDOW 0 0 56 VBottom 2
WINDOW 3 30 135 VTop 2
SYMATTR InstName RF3
SYMATTR Value 68.1k
SYMBOL res 16 8416 R90
WINDOW 0 63 57 VBottom 2
WINDOW 3 -35 130 VTop 2
SYMATTR InstName RF4
SYMATTR Value 68.1k
SYMBOL AD8137 -160 8688 R0
SYMATTR InstName U1
SYMBOL cap -384 8352 R90
WINDOW 0 16 0 VBottom 2
WINDOW 3 -40 -52 VTop 2
SYMATTR InstName C19
SYMATTR Value 4.7p
SYMBOL cap -384 9008 R90
WINDOW 0 46 -2 VBottom 2
WINDOW 3 48 -55 VTop 2
SYMATTR InstName C20
SYMATTR Value 4.7p
SYMBOL bv 160 8448 R0
SYMATTR InstName B4
SYMATTR Value V=V(OUT1_3-,OUT1_3+)
SYMBOL res -352 8640 R90
WINDOW 0 -26 54 VBottom 2
WINDOW 3 -28 55 VTop 2
SYMATTR InstName Rn5
SYMATTR Value 100
SYMBOL res -352 8736 R90
WINDOW 0 -26 54 VBottom 2
WINDOW 3 -28 55 VTop 2
SYMATTR InstName Rn6
SYMATTR Value 100
SYMBOL res -2208 8784 R90
WINDOW 0 82 55 VBottom 2
WINDOW 3 32 56 VTop 2
SYMATTR InstName R41
SYMATTR Value 0.001
SYMBOL res -2096 8784 R90
WINDOW 0 81 54 VBottom 2
WINDOW 3 32 56 VTop 2
SYMATTR InstName R42
SYMATTR Value 0.001
SYMBOL res -1456 8640 R90
WINDOW 0 0 56 VBottom 2
WINDOW 3 -28 21 VTop 2
SYMATTR InstName R43
SYMATTR Value 5
SYMBOL res -1456 8976 R90
WINDOW 0 0 56 VBottom 2
WINDOW 3 -27 22 VTop 2
SYMATTR InstName R44
SYMATTR Value 5
SYMBOL cap -1664 8992 R0
WINDOW 0 39 14 Left 2
WINDOW 3 41 39 Left 2
SYMATTR InstName C21
SYMATTR Value 4p
SYMBOL cap -1664 8656 R0
WINDOW 0 39 14 Left 2
WINDOW 3 41 39 Left 2
SYMATTR InstName C22
SYMATTR Value 4p
SYMBOL res -592 8640 R90
WINDOW 0 -6 53 VBottom 2
WINDOW 3 30 101 VTop 2
SYMATTR InstName RIN5
SYMATTR Value 1k
SYMBOL res -592 8736 R90
WINDOW 0 -5 57 VBottom 2
WINDOW 3 30 101 VTop 2
SYMATTR InstName RIN6
SYMATTR Value 1k
SYMBOL res -2080 9184 R90
WINDOW 0 0 56 VBottom 2
WINDOW 3 32 56 VTop 2
SYMATTR InstName R45
SYMATTR Value 68.1k
SYMBOL res -2080 9344 R90
WINDOW 0 0 56 VBottom 2
WINDOW 3 32 56 VTop 2
SYMATTR InstName R46
SYMATTR Value 68.1k
SYMBOL res -2320 9184 R0
SYMATTR InstName R47
SYMATTR Value 40
SYMBOL res -2320 9344 R0
SYMATTR InstName R48
SYMATTR Value 40
SYMBOL res -2336 9184 R90
WINDOW 0 0 56 VBottom 2
WINDOW 3 32 56 VTop 2
SYMATTR InstName R49
SYMATTR Value 40k
SYMBOL res -2336 9344 R90
WINDOW 0 0 56 VBottom 2
WINDOW 3 32 56 VTop 2
SYMATTR InstName R50
SYMATTR Value 40k
SYMBOL res -2928 8640 R90
WINDOW 0 0 56 VBottom 2
WINDOW 3 32 56 VTop 2
SYMATTR InstName R51
SYMATTR Value 100
SYMBOL res -2800 8640 R90
WINDOW 0 0 56 VBottom 2
WINDOW 3 32 56 VTop 2
SYMATTR InstName R52
SYMATTR Value 25
SYMBOL res -2896 8800 R180
WINDOW 0 36 76 Left 2
WINDOW 3 36 40 Left 2
SYMATTR InstName R53
SYMATTR Value 25
SYMBOL res -3040 9008 R270
WINDOW 0 32 56 VTop 2
WINDOW 3 0 56 VBottom 2
SYMATTR InstName R54
SYMATTR Value 100
SYMBOL res -2912 9008 R270
WINDOW 0 32 56 VTop 2
WINDOW 3 0 56 VBottom 2
SYMATTR InstName R55
SYMATTR Value 25
SYMBOL res -2928 9008 R0
SYMATTR InstName R56
SYMATTR Value 25
SYMBOL bv -2768 8448 R0
SYMATTR InstName B5
SYMATTR Value V=V(IN_p_3,IN_n_3)
SYMBOL AutoGenerated\\BAS116QA -2304 8720 R270
SYMATTR InstName U12
SYMBOL AutoGenerated\\BAS116QA -2304 8928 R90
SYMATTR InstName U13
SYMBOL AutoGenerated\\BAS116QA -2112 8720 R90
SYMATTR InstName U14
SYMBOL AutoGenerated\\BAS116QA -2112 8928 R270
SYMATTR InstName U15
TEXT -568 4688 Left 2 ;.noise V(out_bp1_diff_value) V1 dec 100 10k 1000k ;.ac dec 100 1 750k
TEXT -2456 4672 Left 2 !.PARAM k12_2   0.000001
TEXT -2456 4712 Left 2 !.PARAM M12_2 {{k12_2}*(sqrt({L1s_2}*{L2s_2})*({N1_2}/{N2_2}))}
TEXT -2456 4744 Left 2 !.PARAM M21_2 {{k12_2}*(sqrt({L1s_2}*{L2s_2})*({N2_2}/{N1_2}))}
TEXT -2456 4624 Left 2 !.PARAM L1s_2 36u
TEXT -2456 4648 Left 2 !.PARAM L2s_2 1.7u
TEXT -2456 4568 Left 2 !.PARAM N1_2 1
TEXT -2456 4592 Left 2 !.PARAM N2_2 1
TEXT -2456 4784 Left 2 !.PARAM L1l_2 {{L1s_2}-{M12_2}}
TEXT -2456 4816 Left 2 !.PARAM L2l_2 {{L2s_2}-{M21_2}}
TEXT -1168 4512 Left 2 !.param C_HP1 {270p}
TEXT -1168 4552 Left 2 !.param C_LP1 {10p}
TEXT -2088 4632 Left 2 ;.step param k12_2  0.000001 0.004 0.0005
TEXT -2088 4664 Left 2 ;.step param k12_2 0.000002 0.05 0.049998
TEXT -752 4408 Left 2 !.param tol_C=0.01 ;   +/-1% capacitor component tolerance
TEXT -752 4448 Left 2 !.param tol_R=0.001 ;   +/-0.1% resistor component tolerance
TEXT -3280 6232 Left 2 !.PARAM I_AMP_120kHz_week 260m
TEXT -3288 6192 Left 2 !.PARAM I_AMP_85kHz_week {I_AMP_120kHz_week*40}
TEXT -744 4488 Left 2 ;.step param X 0 1 1 ; a dummy parameter to cycle Monte Carlo runs
TEXT -568 4760 Left 2 ;.noise V(Out_BP_Diff_Value) V1 dec 100 1k 1Meg
TEXT -568 5080 Left 2 !.param R_FEEDBACK_1 12k*ScaleFactor
TEXT 136 5048 Left 2 !.param RIN_2 2.2k*ScaleFactor
TEXT -568 5048 Left 2 !.param RIN_1 2.2k*ScaleFactor
TEXT 136 5016 Left 2 !.param C2 820p/ScaleFactor
TEXT -568 5016 Left 2 !.param C1 820p/ScaleFactor
TEXT 136 5080 Left 2 !.param R_FEEDBACK_2 12k*ScaleFactor
TEXT -568 5112 Left 2 !.param R_GAIN_1 1k*ScaleFactor
TEXT 136 5112 Left 2 !.param R_GAIN_2 1.5k*ScaleFactor
TEXT -168 4960 Left 2 !.param ScaleFactor 1
TEXT -560 4800 Left 2 ;.noise V(Out_BP2_Diff_Value) V1 dec 100 1k 1Meg
TEXT -560 4720 Left 2 !.ac dec 100 10k 1Meg
TEXT -568 4896 Left 2 ;.step param ScaleFactor 0.1 1 0.9 ; stepping through the scale factor
TEXT -568 4864 Left 2 ;.step param Factor 0.1 1 0.1
TEXT -2480 5584 Left 2 ;.step param C_junction list 5pF 10pF
TEXT -2480 5552 Left 2 !.TEMP -40 -30 -20 -10 0 10 20 30 40 50 60 70 80 90 100
