Version 4
SHEET 1 6128 8804
WIRE 896 5104 896 5088
WIRE 2272 5200 2272 5184
WIRE -1088 5248 -1088 5232
WIRE -3312 5264 -3312 5248
WIRE -2720 5264 -2720 5248
WIRE -2160 5280 -2160 5264
WIRE 448 5296 384 5296
WIRE 960 5296 512 5296
WIRE 1712 5344 1648 5344
WIRE 2224 5344 1776 5344
WIRE 816 5376 672 5376
WIRE 960 5376 960 5296
WIRE 960 5376 896 5376
WIRE -1648 5392 -1712 5392
WIRE -1136 5392 -1584 5392
WIRE -496 5392 -560 5392
WIRE 16 5392 -432 5392
WIRE 1648 5408 1648 5344
WIRE 2080 5408 1648 5408
WIRE 2224 5408 2224 5344
WIRE 2224 5408 2160 5408
WIRE 4320 5408 4320 5392
WIRE -1712 5456 -1712 5392
WIRE -1280 5456 -1712 5456
WIRE -1136 5456 -1136 5392
WIRE -1136 5456 -1200 5456
WIRE -128 5456 -272 5456
WIRE 16 5456 16 5392
WIRE 16 5456 -48 5456
WIRE 672 5456 672 5376
WIRE 816 5456 672 5456
WIRE 960 5456 960 5376
WIRE 960 5456 896 5456
WIRE 1312 5472 1216 5472
WIRE 1440 5472 1392 5472
WIRE 128 5488 128 5472
WIRE 2000 5568 2000 5488
WIRE 2848 5584 2800 5584
WIRE 2912 5584 2848 5584
WIRE 3056 5584 2992 5584
WIRE 3296 5584 3056 5584
WIRE 3520 5584 3296 5584
WIRE 3648 5584 3520 5584
WIRE 3824 5584 3728 5584
WIRE 4128 5584 3824 5584
WIRE 4240 5584 4128 5584
WIRE -1360 5616 -1360 5536
WIRE -208 5616 -208 5536
WIRE 768 5616 768 5600
WIRE 960 5632 960 5456
WIRE 1024 5632 960 5632
WIRE 1216 5632 1216 5472
WIRE 1216 5632 1024 5632
WIRE 1312 5632 1216 5632
WIRE 1440 5632 1440 5472
WIRE 1440 5632 1392 5632
WIRE 1648 5632 1648 5408
WIRE 1648 5632 1440 5632
WIRE 1712 5632 1648 5632
WIRE 1872 5632 1792 5632
WIRE 1968 5632 1872 5632
WIRE 2224 5632 2224 5408
WIRE 2224 5632 2128 5632
WIRE 2336 5632 2224 5632
WIRE 2800 5632 2800 5584
WIRE 2800 5632 2336 5632
WIRE 3824 5632 3824 5584
WIRE 3056 5664 3056 5648
WIRE 3056 5664 3024 5664
WIRE 3344 5664 3296 5664
WIRE -3536 5680 -3600 5680
WIRE -3440 5680 -3536 5680
WIRE -3248 5680 -3360 5680
WIRE -3056 5680 -3248 5680
WIRE -2992 5680 -3056 5680
WIRE -2848 5680 -2928 5680
WIRE -2800 5680 -2848 5680
WIRE -2704 5680 -2800 5680
WIRE -2608 5680 -2624 5680
WIRE -1920 5680 -2608 5680
WIRE -1840 5680 -1920 5680
WIRE -1712 5680 -1712 5456
WIRE -1712 5680 -1760 5680
WIRE -1648 5680 -1712 5680
WIRE -1488 5680 -1568 5680
WIRE -1392 5680 -1488 5680
WIRE -1184 5680 -1232 5680
WIRE -1136 5680 -1136 5456
WIRE -1136 5680 -1184 5680
WIRE -736 5680 -1136 5680
WIRE -608 5680 -656 5680
WIRE -560 5680 -560 5392
WIRE -560 5680 -608 5680
WIRE -496 5680 -560 5680
WIRE -336 5680 -432 5680
WIRE -272 5680 -272 5456
WIRE -272 5680 -336 5680
WIRE -240 5680 -272 5680
WIRE -32 5680 -80 5680
WIRE 16 5680 16 5456
WIRE 16 5680 -32 5680
WIRE 208 5680 16 5680
WIRE 336 5680 288 5680
WIRE 384 5680 384 5296
WIRE 384 5680 336 5680
WIRE 448 5680 384 5680
WIRE 624 5680 512 5680
WIRE 672 5680 672 5456
WIRE 672 5680 624 5680
WIRE 736 5680 672 5680
WIRE 960 5680 960 5632
WIRE 960 5680 896 5680
WIRE -3600 5696 -3600 5680
WIRE -608 5696 -608 5680
WIRE 336 5696 336 5680
WIRE 1968 5696 1872 5696
WIRE 2224 5696 2128 5696
WIRE 2336 5696 2224 5696
WIRE 2800 5696 2336 5696
WIRE 1648 5728 1440 5728
WIRE 1712 5728 1648 5728
WIRE 1872 5728 1872 5696
WIRE 1872 5728 1792 5728
WIRE -1392 5744 -1488 5744
WIRE -1200 5744 -1232 5744
WIRE -1136 5744 -1200 5744
WIRE -272 5744 -336 5744
WIRE -240 5744 -272 5744
WIRE -48 5744 -80 5744
WIRE 16 5744 -48 5744
WIRE 624 5744 608 5744
WIRE 672 5744 624 5744
WIRE 736 5744 672 5744
WIRE 960 5744 896 5744
WIRE 1024 5744 960 5744
WIRE 1216 5744 1024 5744
WIRE 1312 5744 1216 5744
WIRE 1440 5744 1440 5728
WIRE 1440 5744 1392 5744
WIRE 2800 5744 2800 5696
WIRE 2912 5744 2800 5744
WIRE 3056 5744 3056 5728
WIRE 3056 5744 2992 5744
WIRE 3296 5744 3056 5744
WIRE 3536 5744 3296 5744
WIRE 3648 5744 3536 5744
WIRE 3824 5744 3824 5696
WIRE 3824 5744 3728 5744
WIRE 4128 5744 3824 5744
WIRE 4240 5744 4128 5744
WIRE -1920 5776 -2320 5776
WIRE -1840 5776 -1920 5776
WIRE -1712 5776 -1760 5776
WIRE -1648 5776 -1712 5776
WIRE -1488 5776 -1488 5744
WIRE -1488 5776 -1568 5776
WIRE -1136 5776 -1136 5744
WIRE -736 5776 -1136 5776
WIRE -608 5776 -656 5776
WIRE -560 5776 -608 5776
WIRE -496 5776 -560 5776
WIRE -336 5776 -336 5744
WIRE -336 5776 -432 5776
WIRE 16 5776 16 5744
WIRE 208 5776 16 5776
WIRE 336 5776 288 5776
WIRE 384 5776 336 5776
WIRE 448 5776 384 5776
WIRE 608 5776 608 5744
WIRE 608 5776 512 5776
WIRE 80 5808 -176 5808
WIRE -3248 5824 -3248 5808
WIRE -3152 5824 -3168 5824
WIRE -3136 5824 -3152 5824
WIRE -3056 5824 -3056 5808
WIRE 768 5824 768 5808
WIRE -3152 5840 -3152 5824
WIRE 1216 5840 1216 5744
WIRE 1312 5840 1216 5840
WIRE 1440 5840 1440 5744
WIRE 1440 5840 1392 5840
WIRE 2000 5840 2000 5760
WIRE 2032 5872 2032 5760
WIRE 2256 5872 2032 5872
WIRE -3248 5888 -3248 5824
WIRE -3056 5888 -3056 5824
WIRE -1360 5888 -1360 5808
WIRE -208 5888 -208 5808
WIRE -1328 5920 -1328 5808
WIRE -1104 5920 -1328 5920
WIRE 800 5936 800 5808
WIRE 1088 5936 1088 5920
WIRE 1088 5936 800 5936
WIRE 1648 5936 1648 5728
WIRE 2080 5936 1648 5936
WIRE 2224 5936 2224 5696
WIRE 2224 5936 2160 5936
WIRE 1088 5952 1088 5936
WIRE -1712 5984 -1712 5776
WIRE -1280 5984 -1712 5984
WIRE -1136 5984 -1136 5776
WIRE -1136 5984 -1200 5984
WIRE -272 5984 -272 5744
WIRE -128 5984 -272 5984
WIRE 16 5984 16 5776
WIRE 16 5984 -48 5984
WIRE 672 5984 672 5744
WIRE 816 5984 672 5984
WIRE 960 5984 960 5744
WIRE 960 5984 896 5984
WIRE 1648 6000 1648 5936
WIRE 1712 6000 1648 6000
WIRE 2224 6000 2224 5936
WIRE 2224 6000 1776 6000
WIRE -3600 6016 -3600 5776
WIRE -3536 6016 -3600 6016
WIRE -3440 6016 -3536 6016
WIRE -3248 6016 -3360 6016
WIRE -3056 6016 -3248 6016
WIRE -2992 6016 -3056 6016
WIRE -2848 6016 -2928 6016
WIRE -2800 6016 -2848 6016
WIRE -2704 6016 -2800 6016
WIRE -2608 6016 -2624 6016
WIRE -2320 6016 -2320 5776
WIRE -2320 6016 -2608 6016
WIRE 2848 6032 2848 5584
WIRE 3072 6032 2848 6032
WIRE 3216 6032 3152 6032
WIRE 3520 6032 3216 6032
WIRE 3856 6032 3520 6032
WIRE 3984 6032 3936 6032
WIRE 4032 6032 3984 6032
WIRE 4128 6032 4032 6032
WIRE 4240 6032 4128 6032
WIRE -1712 6048 -1712 5984
WIRE -1648 6048 -1712 6048
WIRE -1136 6048 -1136 5984
WIRE -1136 6048 -1584 6048
WIRE -560 6048 -560 5776
WIRE -496 6048 -560 6048
WIRE 16 6048 16 5984
WIRE 16 6048 -432 6048
WIRE 672 6048 672 5984
WIRE 816 6048 672 6048
WIRE 960 6048 960 5984
WIRE 960 6048 896 6048
WIRE 4032 6080 4032 6032
WIRE 4320 6080 4320 6064
WIRE 80 6096 80 5808
WIRE 144 6096 144 6080
WIRE 144 6096 80 6096
WIRE 384 6096 384 5776
WIRE 448 6096 384 6096
WIRE 960 6096 960 6048
WIRE 960 6096 512 6096
WIRE 144 6112 144 6096
WIRE 3216 6112 3216 6096
WIRE 3216 6112 3184 6112
WIRE 2256 6160 2256 5872
WIRE 2352 6160 2352 6144
WIRE 2352 6160 2256 6160
WIRE 2352 6176 2352 6160
WIRE 2800 6192 2800 5744
WIRE 3072 6192 2800 6192
WIRE 3216 6192 3216 6176
WIRE 3216 6192 3152 6192
WIRE 3520 6192 3216 6192
WIRE 3856 6192 3520 6192
WIRE 3984 6192 3936 6192
WIRE 4032 6192 4032 6144
WIRE 4032 6192 3984 6192
WIRE 4144 6192 4032 6192
WIRE 4240 6192 4144 6192
WIRE -1104 6208 -1104 5920
WIRE -1008 6208 -1008 6192
WIRE -1008 6208 -1104 6208
WIRE 144 6208 144 6192
WIRE -1008 6224 -1008 6208
WIRE 2352 6272 2352 6256
WIRE -1008 6320 -1008 6304
WIRE 784 6368 592 6368
WIRE 592 6384 592 6368
WIRE 784 6384 784 6368
WIRE 3472 6448 3472 6432
WIRE 784 6480 784 6464
WIRE 864 6480 784 6480
WIRE 896 6480 864 6480
WIRE 784 6512 784 6480
WIRE 592 6672 592 6464
WIRE 784 6672 784 6592
FLAG -3312 5344 0
FLAG -3312 5248 Sig_IN
FLAG -3536 5680 IN_p
FLAG -3536 6016 IN_n
FLAG -2848 5680 IN_p3
FLAG -2848 6016 IN_n3
FLAG 592 6368 3.3V
FLAG 784 6672 0
FLAG 864 6480 Vref
FLAG 592 6672 0
FLAG -2720 5344 0
FLAG -2720 5248 Sig_IN3
FLAG -2160 5360 0
FLAG -2160 5264 Sig_IN2
FLAG -1920 5680 IN_p2
FLAG -1920 5776 IN_n2
FLAG -2608 6080 0
FLAG -2608 5744 0
FLAG 896 5184 0
FLAG 896 5088 Out_BP2_Diff_Value
FLAG 1088 5840 3.3V
FLAG 1088 6032 0
FLAG -3152 5840 0
FLAG -2800 6080 0
FLAG -2800 5744 0
FLAG 3024 5664 0
FLAG 3520 5584 FPGA_Pin_p
FLAG 3536 5744 FPGA_Pin_n
FLAG 4320 5488 0
FLAG 4320 5392 FPGA_ADC_Diff_Internal
FLAG 3984 6032 Ch_p
FLAG 3984 6192 Ch_n
FLAG 3184 6112 0
FLAG 3520 6032 MCU_ADC_Pin_p
FLAG 3520 6192 MCU_ADC_Pin_n
FLAG 4320 6160 0
FLAG 4320 6064 MCU_ADC_Diff_Internal
FLAG 4128 6032 MCU_ADC_INT_p
FLAG 4144 6192 MCU_ADC_INT_n
FLAG 4128 5584 FPGA_ADC_INT_p
FLAG 4128 5744 FPGA_ADC_INT_n
FLAG 3344 5664 0
FLAG 3472 6528 0
FLAG 3472 6432 MCU_AIN_PIN
FLAG 144 6000 3.3V
FLAG 144 6208 0
FLAG 768 5600 3.3V
FLAG 768 5824 0
FLAG -208 5536 3.3V
FLAG -208 5888 0
FLAG 1024 5632 OUT2-
FLAG 1024 5744 OUT2+
FLAG -32 5680 OUT1-
FLAG -48 5744 OUT1+
FLAG 128 5568 0
FLAG 128 5472 Out_BP1_Diff_Value
FLAG -1360 5536 3.3V
FLAG -1360 5888 0
FLAG -1184 5680 OUT-
FLAG -1200 5744 OUT+
FLAG -1008 6112 3.3V
FLAG -1008 6320 0
FLAG -1088 5328 0
FLAG -1088 5232 Out_LNA_DiffValue
FLAG 2000 5488 3.3V
FLAG 2000 5840 0
FLAG 2352 6064 3.3V
FLAG 2352 6272 0
FLAG 2272 5280 0
FLAG 2272 5184 Out_PGA_DiffValue
FLAG 2336 5632 OUT3-
FLAG 2336 5696 OUT3+
FLAG 1216 5408 0
FLAG 1216 5904 0
FLAG 1440 5904 0
FLAG 1440 5408 0
SYMBOL res -3344 5664 R90
WINDOW 0 0 56 VBottom 2
WINDOW 3 32 56 VTop 2
SYMATTR InstName R37
SYMATTR Value 5k
SYMBOL res -3344 6000 R90
WINDOW 0 0 56 VBottom 2
WINDOW 3 32 56 VTop 2
SYMATTR InstName R38
SYMATTR Value 5k
SYMBOL bv -3312 5248 R0
SYMATTR InstName B3
SYMATTR Value V=V(IN_p,IN_n)
SYMBOL voltage 592 6368 R0
WINDOW 123 0 0 Left 2
SYMATTR InstName Vcc4
SYMATTR Value 3.3
SYMBOL res 768 6368 R0
SYMATTR InstName R2
SYMATTR Value 1k
SYMBOL res 768 6496 R0
SYMATTR InstName R8
SYMATTR Value 1k
SYMBOL bv -2720 5248 R0
SYMATTR InstName B6
SYMATTR Value V=V(IN_p3,IN_n3)
SYMBOL bv -2160 5264 R0
SYMATTR InstName B7
SYMATTR Value V=V(IN_p2,IN_n2)
SYMBOL voltage -3600 5680 R0
WINDOW 123 47 46 Left 2
WINDOW 39 0 0 Left 0
WINDOW 3 53 85 Left 2
WINDOW 0 47 13 Left 2
SYMATTR Value2 AC 0.1
SYMATTR Value SINE(0 1000 120k)
SYMATTR InstName V1
SYMBOL cap -2624 6016 R0
WINDOW 0 39 14 Left 2
WINDOW 3 41 39 Left 2
SYMATTR InstName C12
SYMATTR Value 4p
SYMBOL cap -2624 5680 R0
WINDOW 0 34 17 Left 2
WINDOW 3 34 44 Left 2
SYMATTR InstName C14
SYMATTR Value 4p
SYMBOL bv 896 5088 R0
SYMATTR InstName B9
SYMATTR Value V=V(OUT2-,OUT2+)
SYMBOL res 1104 5936 R180
WINDOW 0 -63 70 Left 2
WINDOW 3 -44 38 Left 2
SYMATTR InstName RG16
SYMATTR Value 1k
SYMBOL res 1104 6048 R180
WINDOW 0 -63 70 Left 2
WINDOW 3 -46 41 Left 2
SYMATTR InstName RG17
SYMATTR Value 1k
SYMBOL cap -2928 5664 R90
WINDOW 0 0 32 VBottom 2
WINDOW 3 -11 -8 VTop 2
SYMATTR InstName C1
SYMATTR Value 100n
SYMBOL cap -2928 6000 R90
WINDOW 0 0 32 VBottom 2
WINDOW 3 -15 -14 VTop 2
SYMATTR InstName C10
SYMATTR Value 100n
SYMBOL schottky -3232 5744 R180
WINDOW 0 39 46 Left 2
WINDOW 3 36 24 Left 2
SYMATTR InstName D1
SYMATTR Value BAT54
SYMATTR Description Diode
SYMATTR Type diode
SYMBOL schottky -3232 5808 R180
WINDOW 0 39 46 Left 2
WINDOW 3 36 24 Left 2
SYMATTR InstName D2
SYMATTR Value BAT54
SYMATTR Description Diode
SYMATTR Type diode
SYMBOL schottky -3072 5744 R0
WINDOW 0 -37 18 Left 2
WINDOW 3 -78 40 Left 2
SYMATTR InstName D3
SYMATTR Value BAT54
SYMATTR Description Diode
SYMATTR Type diode
SYMBOL schottky -3072 5680 R0
WINDOW 0 -37 17 Left 2
WINDOW 3 -78 40 Left 2
SYMATTR InstName D4
SYMATTR Value BAT54
SYMATTR Description Diode
SYMATTR Type diode
SYMBOL schottky -3264 5952 R0
WINDOW 0 -39 20 Left 2
WINDOW 3 -79 45 Left 2
SYMATTR InstName D5
SYMATTR Value BAT54
SYMATTR Description Diode
SYMATTR Type diode
SYMBOL schottky -3264 5888 R0
WINDOW 0 -40 21 Left 2
WINDOW 3 -83 43 Left 2
SYMATTR InstName D6
SYMATTR Value BAT54
SYMATTR Description Diode
SYMATTR Type diode
SYMBOL schottky -3040 5952 R180
WINDOW 0 39 46 Left 2
WINDOW 3 36 24 Left 2
SYMATTR InstName D7
SYMATTR Value BAT54
SYMATTR Description Diode
SYMATTR Type diode
SYMBOL schottky -3040 6016 R180
WINDOW 0 39 46 Left 2
WINDOW 3 36 24 Left 2
SYMATTR InstName D8
SYMATTR Value BAT54
SYMATTR Description Diode
SYMATTR Type diode
SYMBOL res -3152 5808 R90
WINDOW 0 82 55 VBottom 2
WINDOW 3 32 56 VTop 2
SYMATTR InstName R1
SYMATTR Value 0.001
SYMBOL res -3040 5808 R90
WINDOW 0 81 54 VBottom 2
WINDOW 3 32 56 VTop 2
SYMATTR InstName R3
SYMATTR Value 0.001
SYMBOL res -2608 5664 R90
WINDOW 0 0 56 VBottom 2
WINDOW 3 -28 21 VTop 2
SYMATTR InstName R4
SYMATTR Value 5
SYMBOL res -2608 6000 R90
WINDOW 0 0 56 VBottom 2
WINDOW 3 -27 22 VTop 2
SYMATTR InstName R5
SYMATTR Value 5
SYMBOL cap -2816 6016 R0
WINDOW 0 39 14 Left 2
WINDOW 3 41 39 Left 2
SYMATTR InstName C6
SYMATTR Value 4p
SYMBOL cap -2816 5680 R0
WINDOW 0 39 14 Left 2
WINDOW 3 41 39 Left 2
SYMATTR InstName C7
SYMATTR Value 4p
SYMBOL res -1744 5664 R90
WINDOW 0 -6 53 VBottom 2
WINDOW 3 30 101 VTop 2
SYMATTR InstName RIN1
SYMATTR Value 1k
SYMBOL res -1744 5760 R90
WINDOW 0 -5 57 VBottom 2
WINDOW 3 30 101 VTop 2
SYMATTR InstName RIN2
SYMATTR Value 1k
SYMBOL res 3008 5568 R90
WINDOW 0 -26 54 VBottom 2
WINDOW 3 -28 55 VTop 2
SYMATTR InstName RG9
SYMATTR Value {mc(1k, tol_R)}
SYMBOL res 3008 5728 R90
WINDOW 0 -26 54 VBottom 2
WINDOW 3 -28 55 VTop 2
SYMATTR InstName RG11
SYMATTR Value {mc(1k, tol_R)}
SYMBOL cap 3040 5584 R0
WINDOW 3 25 -27 Left 2
SYMATTR Value {mc(1000p, tol_C)}
SYMATTR InstName C19
SYMBOL cap 3040 5664 R0
WINDOW 3 -14 89 Left 2
SYMATTR Value {mc(1000p, tol_C)}
SYMATTR InstName C20
SYMBOL res 3952 6016 R90
WINDOW 0 0 56 VBottom 2
WINDOW 3 32 56 VTop 2
SYMATTR InstName R9
SYMATTR Value 1.2k
SYMBOL res 3952 6176 R90
WINDOW 0 0 56 VBottom 2
WINDOW 3 32 56 VTop 2
SYMATTR InstName R10
SYMATTR Value 1.2k
SYMBOL bv 4320 5392 R0
SYMATTR InstName B10
SYMATTR Value V=V(FPGA_ADC_INT_p,FPGA_ADC_INT_n)
SYMBOL cap 4016 6080 R0
WINDOW 3 39 34 Left 2
WINDOW 0 39 11 Left 2
SYMATTR Value 8pF
SYMATTR InstName Ch1
SYMBOL res 3168 6016 R90
WINDOW 0 -26 54 VBottom 2
WINDOW 3 -28 55 VTop 2
SYMATTR InstName RG12
SYMATTR Value {mc(330, tol_R)}
SYMBOL res 3168 6176 R90
WINDOW 0 -26 54 VBottom 2
WINDOW 3 -28 55 VTop 2
SYMATTR InstName RG13
SYMATTR Value {mc(330, tol_R)}
SYMBOL cap 3200 6032 R0
SYMATTR InstName C21
SYMATTR Value {mc(2.2n, tol_C)}
SYMBOL cap 3200 6112 R0
WINDOW 3 -14 89 Left 2
SYMATTR Value {mc(2.2n, tol_C)}
SYMATTR InstName C22
SYMBOL res 3744 5568 R90
WINDOW 0 0 56 VBottom 2
WINDOW 3 32 56 VTop 2
SYMATTR InstName R11
SYMATTR Value 10k
SYMBOL res 3744 5728 R90
WINDOW 0 0 56 VBottom 2
WINDOW 3 32 56 VTop 2
SYMATTR InstName R12
SYMATTR Value 10k
SYMBOL cap 3808 5632 R0
WINDOW 3 39 34 Left 2
WINDOW 0 39 11 Left 2
SYMATTR Value 3pF
SYMATTR InstName Ch2
SYMBOL bv 4320 6064 R0
SYMATTR InstName B11
SYMATTR Value V=V(MCU_ADC_INT_p,MCU_ADC_INT_n)
SYMBOL res 3312 5680 R180
WINDOW 0 36 76 Left 2
WINDOW 3 36 40 Left 2
SYMATTR InstName RG14
SYMATTR Value {mc(590, tol_R)}
SYMBOL res 3312 5760 R180
WINDOW 0 36 76 Left 2
WINDOW 3 36 40 Left 2
SYMATTR InstName RG18
SYMATTR Value {mc(590, tol_R)}
SYMBOL bv 3472 6432 R0
SYMATTR InstName B12
SYMATTR Value V=V(MCU_ADC_Pin_p,MCU_ADC_Pin_n)
SYMBOL res 160 6096 R180
WINDOW 0 -63 70 Left 2
WINDOW 3 -30 42 Left 2
SYMATTR InstName RG21
SYMATTR Value 1k
SYMBOL res 160 6208 R180
WINDOW 0 -63 70 Left 2
WINDOW 3 -32 39 Left 2
SYMATTR InstName RG24
SYMATTR Value 1k
SYMBOL res 304 5760 R90
WINDOW 0 65 57 VBottom 2
WINDOW 3 65 58 VTop 2
SYMATTR InstName RG25
SYMATTR Value 20k
SYMBOL res 912 5968 R90
WINDOW 0 16 132 VBottom 2
WINDOW 3 -12 -3 VTop 2
SYMATTR InstName RF1
SYMATTR Value 100k
SYMBOL res 304 5664 R90
WINDOW 0 -26 54 VBottom 2
WINDOW 3 -28 55 VTop 2
SYMATTR InstName RG26
SYMATTR Value 20k
SYMBOL res 912 5440 R90
WINDOW 0 16 -6 VBottom 2
WINDOW 3 -11 127 VTop 2
SYMATTR InstName RF2
SYMATTR Value 100k
SYMBOL cap 512 5664 R90
WINDOW 0 0 32 VBottom 2
WINDOW 3 32 32 VTop 2
SYMATTR InstName C23
SYMATTR Value 220p
SYMBOL cap 512 5760 R90
WINDOW 0 0 32 VBottom 2
WINDOW 3 32 32 VTop 2
SYMATTR InstName C24
SYMATTR Value 220p
SYMBOL cap 512 5280 R90
WINDOW 0 0 32 VBottom 2
WINDOW 3 32 32 VTop 2
SYMATTR InstName C25
SYMATTR Value 220p
SYMBOL cap 512 6080 R90
WINDOW 0 0 32 VBottom 2
WINDOW 3 32 32 VTop 2
SYMATTR InstName C26
SYMATTR Value 220p
SYMBOL res 352 5792 R180
WINDOW 0 48 80 Left 2
WINDOW 3 45 52 Left 2
SYMATTR InstName RG27
SYMATTR Value {R_GAIN_2}
SYMBOL res -32 5968 R90
WINDOW 0 0 56 VBottom 2
WINDOW 3 30 135 VTop 2
SYMATTR InstName RF3
SYMATTR Value 56k
SYMBOL res -32 5440 R90
WINDOW 0 63 57 VBottom 2
WINDOW 3 -35 130 VTop 2
SYMATTR InstName RF4
SYMATTR Value 56k
SYMBOL AD8137 -208 5712 R0
SYMATTR InstName U3
SYMBOL cap -432 5664 R90
WINDOW 0 0 32 VBottom 2
WINDOW 3 32 32 VTop 2
SYMATTR InstName C29
SYMATTR Value 220p
SYMBOL cap -432 5760 R90
WINDOW 0 0 32 VBottom 2
WINDOW 3 32 32 VTop 2
SYMATTR InstName C30
SYMATTR Value 220p
SYMBOL cap -432 5376 R90
WINDOW 0 16 0 VBottom 2
WINDOW 3 33 33 VTop 2
SYMATTR InstName C31
SYMATTR Value 220p
SYMBOL cap -432 6032 R90
WINDOW 0 46 -2 VBottom 2
WINDOW 3 -30 37 VTop 2
SYMATTR InstName C32
SYMATTR Value 220p
SYMBOL res -592 5792 R180
WINDOW 0 120 76 Left 2
WINDOW 3 35 50 Left 2
SYMATTR InstName RG30
SYMATTR Value 825
SYMBOL AD8137 768 5712 R0
SYMATTR InstName U4
SYMBOL bv 128 5472 R0
SYMATTR InstName B5
SYMATTR Value V=V(OUT1-,OUT1+)
SYMBOL res -1184 5968 R90
WINDOW 0 0 56 VBottom 2
WINDOW 3 30 135 VTop 2
SYMATTR InstName RF5
SYMATTR Value 68k
SYMBOL res -1184 5440 R90
WINDOW 0 63 57 VBottom 2
WINDOW 3 -35 130 VTop 2
SYMATTR InstName RF6
SYMATTR Value 68k
SYMBOL AD8137 -1360 5712 R0
SYMATTR InstName U5
SYMBOL cap -1584 5376 R90
WINDOW 0 16 0 VBottom 2
WINDOW 3 22 -4 VTop 2
SYMATTR InstName C4
SYMATTR Value 5p
SYMBOL cap -1584 6032 R90
WINDOW 0 46 -2 VBottom 2
WINDOW 3 -16 -8 VTop 2
SYMATTR InstName C5
SYMATTR Value 5p
SYMBOL res -992 6208 R180
WINDOW 0 -63 70 Left 2
WINDOW 3 -42 40 Left 2
SYMATTR InstName RG4
SYMATTR Value 1k
SYMBOL res -992 6320 R180
WINDOW 0 -63 70 Left 2
WINDOW 3 -44 42 Left 2
SYMATTR InstName RG10
SYMATTR Value 1k
SYMBOL res -1552 5664 R90
WINDOW 0 63 57 VBottom 2
WINDOW 3 -16 -6 VTop 2
SYMATTR InstName RF7
SYMATTR Value 100
SYMBOL res -1552 5760 R90
WINDOW 0 63 57 VBottom 2
WINDOW 3 -14 -7 VTop 2
SYMATTR InstName RF8
SYMATTR Value 100
SYMBOL bv -1088 5232 R0
SYMATTR InstName B2
SYMATTR Value V=V(OUT-,OUT+)
SYMBOL cap -1472 5744 R180
WINDOW 0 -36 43 Left 2
WINDOW 3 -62 19 Left 2
SYMATTR InstName C2
SYMATTR Value 220p
SYMBOL cap -320 5744 R180
WINDOW 0 -36 43 Left 2
WINDOW 3 -62 19 Left 2
SYMATTR InstName C3
SYMATTR Value 220p
SYMBOL cap 640 5744 R180
WINDOW 0 -36 43 Left 2
WINDOW 3 -62 19 Left 2
SYMATTR InstName C8
SYMATTR Value 220p
SYMBOL res -640 5664 R90
WINDOW 0 -28 -7 VBottom 2
WINDOW 3 -31 50 VTop 2
SYMATTR InstName RG1
SYMATTR Value 15k
SYMBOL res -640 5760 R90
WINDOW 0 86 -19 VBottom 2
WINDOW 3 31 34 VTop 2
SYMATTR InstName RG2
SYMATTR Value 15k
SYMBOL res 1408 5616 R90
WINDOW 0 -6 53 VBottom 2
WINDOW 3 30 101 VTop 2
SYMATTR InstName RIN3
SYMATTR Value 100k
SYMBOL res 1408 5728 R90
WINDOW 0 -5 57 VBottom 2
WINDOW 3 30 101 VTop 2
SYMATTR InstName RIN4
SYMATTR Value 100k
SYMBOL res 2176 5920 R90
WINDOW 0 0 56 VBottom 2
WINDOW 3 30 135 VTop 2
SYMATTR InstName RF9
SYMATTR Value 100k
SYMBOL res 2176 5392 R90
WINDOW 0 63 57 VBottom 2
WINDOW 3 -35 130 VTop 2
SYMATTR InstName RF10
SYMATTR Value 100k
SYMBOL AD8137 2000 5664 R0
SYMATTR InstName U6
SYMBOL cap 1776 5328 R90
WINDOW 0 16 0 VBottom 2
WINDOW 3 22 -4 VTop 2
SYMATTR InstName C13
SYMATTR Value 10p
SYMBOL cap 1776 5984 R90
WINDOW 0 46 -2 VBottom 2
WINDOW 3 -16 -8 VTop 2
SYMATTR InstName C27
SYMATTR Value 10p
SYMBOL res 2368 6160 R180
WINDOW 0 -63 70 Left 2
WINDOW 3 -42 40 Left 2
SYMATTR InstName RG6
SYMATTR Value 1k
SYMBOL res 2368 6272 R180
WINDOW 0 -63 70 Left 2
WINDOW 3 -44 42 Left 2
SYMATTR InstName RG7
SYMATTR Value 1k
SYMBOL res 1808 5616 R90
WINDOW 0 63 57 VBottom 2
WINDOW 3 -16 -6 VTop 2
SYMATTR InstName RF11
SYMATTR Value 100
SYMBOL res 1808 5712 R90
WINDOW 0 63 57 VBottom 2
WINDOW 3 -14 -7 VTop 2
SYMATTR InstName RF12
SYMATTR Value 100
SYMBOL bv 2272 5184 R0
SYMATTR InstName B8
SYMATTR Value V=V(OUT3-,OUT3+)
SYMBOL cap 1888 5696 R180
WINDOW 0 -36 43 Left 2
WINDOW 3 -62 19 Left 2
SYMATTR InstName C28
SYMATTR Value 220p
SYMBOL res 1408 5456 R90
WINDOW 0 63 57 VBottom 2
WINDOW 3 68 65 VTop 2
SYMATTR InstName R_SWITCH1
SYMATTR Value {R_IN_PGA}
SYMBOL res 1408 5824 R90
WINDOW 0 63 57 VBottom 2
WINDOW 3 68 65 VTop 2
SYMATTR InstName R_SWITCH2
SYMATTR Value {R_IN_PGA}
SYMBOL cap 1200 5408 R0
SYMATTR InstName C9
SYMATTR Value 16p
SYMBOL cap 1424 5408 R0
SYMATTR InstName C11
SYMATTR Value 16p
SYMBOL cap 1200 5840 R0
SYMATTR InstName C15
SYMATTR Value 16p
SYMBOL cap 1424 5840 R0
SYMATTR InstName C16
SYMATTR Value 16p
SYMBOL res 912 6032 R90
WINDOW 0 17 123 VBottom 2
WINDOW 3 -10 -8 VTop 2
SYMATTR InstName RF13
SYMATTR Value 330k
SYMBOL res 912 5360 R90
WINDOW 0 17 -6 VBottom 2
WINDOW 3 -11 127 VTop 2
SYMATTR InstName RF14
SYMATTR Value 330k
TEXT -1168 4456 Left 2 !;tran 1m
TEXT -1160 4408 Left 2 !.ac dec 100 10k 500k
TEXT -2456 4672 Left 2 !.PARAM k12_2   0.000001
TEXT -2456 4712 Left 2 !.PARAM M12_2 {{k12_2}*(sqrt({L1s_2}*{L2s_2})*({N1_2}/{N2_2}))}
TEXT -2456 4744 Left 2 !.PARAM M21_2 {{k12_2}*(sqrt({L1s_2}*{L2s_2})*({N2_2}/{N1_2}))}
TEXT -2456 4624 Left 2 !.PARAM L1s_2 36u
TEXT -2456 4648 Left 2 !.PARAM L2s_2 1.7u
TEXT -2456 4568 Left 2 !.PARAM N1_2 1
TEXT -2456 4592 Left 2 !.PARAM N2_2 1
TEXT -2456 4784 Left 2 !.PARAM L1l_2 {{L1s_2}-{M12_2}}
TEXT -2456 4816 Left 2 !.PARAM L2l_2 {{L2s_2}-{M21_2}}
TEXT -1168 4512 Left 2 !.param C_HP1 {270p}
TEXT -1168 4552 Left 2 !.param C_LP1 {10p}
TEXT -2088 4632 Left 2 ;.step param k12_2  0.000001 0.004 0.0005
TEXT -2088 4664 Left 2 ;.step param k12_2 0.000002 0.05 0.049998
TEXT -752 4408 Left 2 !.param tol_C=0.01 ;   +/-1% capacitor component tolerance
TEXT -752 4448 Left 2 !.param tol_R=0.001 ;   +/-0.1% resistor component tolerance
TEXT -3776 6184 Left 2 !.PARAM I_AMP_120kHz_week 260m
TEXT -3776 6152 Left 2 !.PARAM I_AMP_85kHz_week {I_AMP_120kHz_week*40}
TEXT -744 4488 Left 2 ;.step param X 0 1 1 ; a dummy parameter to cycle Monte Carlo runs
TEXT -568 4760 Left 2 ;.noise V(Out_BP_Diff_Value) V1 dec 100 1k 1Meg
TEXT -568 5080 Left 2 !.param R_FEEDBACK_1 56k
TEXT 136 5048 Left 2 !.param RIN_2 20k
TEXT -568 5048 Left 2 !.param RIN_1 15k
TEXT 136 5016 Left 2 !.param C2 220p
TEXT -568 5016 Left 2 !.param C1 220p
TEXT 136 5080 Left 2 !.param R_FEEDBACK_2 76.744k
TEXT -568 5112 Left 2 !.param R_GAIN_1 825
TEXT 136 5112 Left 2 !.param R_GAIN_2 1.1k
TEXT -168 4960 Left 2 !.param ScaleFactor {1/2.2}
TEXT -560 4800 Left 2 ;.noise V(Out_BP2_Diff_Value) V1 dec 100 1k 1Meg
TEXT -560 4720 Left 2 !;ac dec 100 1k 750k
TEXT -568 4896 Left 2 ;.step param ScaleFactor 0.1 1 0.9 ; stepping through the scale factor
TEXT -568 4864 Left 2 ;.step param Factor 0.1 1 0.1
TEXT -3600 5520 Left 2 ;.step param VIN  list 1u 999u 1m 10m 40m 50m 200m
TEXT 3384 5440 Left 6 ;FPGA_INTERFACE
TEXT 3480 5920 Left 6 ;MCU_INTERFACE
TEXT -3600 5568 Left 2 ;.param VIN  1u
TEXT 1080 5144 Left 2 !.step param R_IN_PGA  list 1Meg 47k 10k 3.3k 1k
