Version 4
SHEET 1 5752 8804
WIRE 1072 5360 1072 5344
WIRE -496 5392 -560 5392
WIRE 16 5392 -432 5392
WIRE 448 5392 384 5392
WIRE 960 5392 512 5392
WIRE -1568 5440 -1568 5424
WIRE -1008 5456 -1008 5440
WIRE -128 5456 -272 5456
WIRE 16 5456 16 5392
WIRE 16 5456 -48 5456
WIRE 816 5456 672 5456
WIRE 960 5456 960 5392
WIRE 960 5456 896 5456
WIRE -2176 5488 -2176 5472
WIRE 112 5488 112 5472
WIRE -1520 5616 -2016 5616
WIRE -1088 5616 -1440 5616
WIRE -208 5616 -208 5536
WIRE 768 5616 768 5600
WIRE 960 5632 960 5456
WIRE 1024 5632 960 5632
WIRE -2160 5680 -2496 5680
WIRE -2016 5680 -2016 5616
WIRE -2016 5680 -2160 5680
WIRE -1952 5680 -2016 5680
WIRE -1792 5680 -1872 5680
WIRE -1648 5680 -1728 5680
WIRE -1328 5680 -1648 5680
WIRE -1088 5680 -1088 5616
WIRE -1088 5680 -1328 5680
WIRE -1024 5680 -1088 5680
WIRE -736 5680 -1024 5680
WIRE -608 5680 -656 5680
WIRE -560 5680 -560 5392
WIRE -560 5680 -608 5680
WIRE -496 5680 -560 5680
WIRE -272 5680 -272 5456
WIRE -272 5680 -432 5680
WIRE -240 5680 -272 5680
WIRE -32 5680 -80 5680
WIRE 16 5680 16 5456
WIRE 16 5680 -32 5680
WIRE 208 5680 16 5680
WIRE 336 5680 288 5680
WIRE 384 5680 384 5392
WIRE 384 5680 336 5680
WIRE 448 5680 384 5680
WIRE 672 5680 672 5456
WIRE 672 5680 512 5680
WIRE 736 5680 672 5680
WIRE 960 5680 960 5632
WIRE 960 5680 896 5680
WIRE -2496 5696 -2496 5680
WIRE -608 5696 -608 5680
WIRE 336 5696 336 5680
WIRE -272 5744 -336 5744
WIRE -240 5744 -272 5744
WIRE -48 5744 -80 5744
WIRE 16 5744 -48 5744
WIRE 208 5744 16 5744
WIRE 672 5744 608 5744
WIRE 736 5744 672 5744
WIRE 960 5744 896 5744
WIRE 1024 5744 960 5744
WIRE -2160 5776 -2496 5776
WIRE -2016 5776 -2160 5776
WIRE -1952 5776 -2016 5776
WIRE -1792 5776 -1872 5776
WIRE -1648 5776 -1728 5776
WIRE -1216 5776 -1648 5776
WIRE -1088 5776 -1216 5776
WIRE -1024 5776 -1088 5776
WIRE -736 5776 -1024 5776
WIRE -608 5776 -656 5776
WIRE -560 5776 -608 5776
WIRE -496 5776 -560 5776
WIRE -336 5776 -336 5744
WIRE -336 5776 -432 5776
WIRE 208 5776 208 5744
WIRE 336 5776 288 5776
WIRE 384 5776 336 5776
WIRE 448 5776 384 5776
WIRE 608 5776 608 5744
WIRE 608 5776 512 5776
WIRE -1328 5808 -1328 5680
WIRE -1216 5808 -1216 5776
WIRE 80 5808 -176 5808
WIRE 768 5824 768 5808
WIRE -208 5888 -208 5808
WIRE -2016 5936 -2016 5776
WIRE -1520 5936 -2016 5936
WIRE -1088 5936 -1088 5776
WIRE -1088 5936 -1440 5936
WIRE 800 5936 800 5808
WIRE 1088 5936 1088 5920
WIRE 1088 5936 800 5936
WIRE 1088 5952 1088 5936
WIRE -272 5984 -272 5744
WIRE -128 5984 -272 5984
WIRE 16 5984 16 5744
WIRE 16 5984 -48 5984
WIRE 672 5984 672 5744
WIRE 816 5984 672 5984
WIRE 960 5984 960 5744
WIRE 960 5984 896 5984
WIRE -560 6048 -560 5776
WIRE -496 6048 -560 6048
WIRE 16 6048 16 5984
WIRE 16 6048 -432 6048
WIRE 384 6048 384 5776
WIRE 448 6048 384 6048
WIRE 960 6048 960 5984
WIRE 960 6048 512 6048
WIRE 1088 6048 1088 6032
WIRE 80 6096 80 5808
WIRE 144 6096 144 6080
WIRE 144 6096 80 6096
WIRE 144 6112 144 6096
WIRE 144 6208 144 6192
WIRE 784 6368 592 6368
WIRE 592 6384 592 6368
WIRE 784 6384 784 6368
WIRE 784 6480 784 6464
WIRE 864 6480 784 6480
WIRE 896 6480 864 6480
WIRE 784 6512 784 6480
WIRE 592 6672 592 6464
WIRE 784 6672 784 6592
FLAG -2176 5568 0
FLAG -2176 5472 Sig_IN
FLAG -2160 5680 IN_p
FLAG -2160 5776 IN_n
FLAG -1648 5680 IN_p3
FLAG -1648 5776 IN_n3
FLAG 592 6368 3.3V
FLAG 784 6672 0
FLAG 864 6480 Vref
FLAG 592 6672 0
FLAG -1568 5520 0
FLAG -1568 5424 Sig_IN3
FLAG -1008 5536 0
FLAG -1008 5440 Sig_IN2
FLAG -1024 5680 IN_p2
FLAG -1024 5776 IN_n2
FLAG -1216 5872 0
FLAG -1328 5872 0
FLAG 1072 5440 0
FLAG 1072 5344 Out_BP2_Diff_Value
FLAG 144 6000 3.3V
FLAG 144 6208 0
FLAG 1088 5840 3.3V
FLAG 1088 6048 0
FLAG 768 5600 3.3V
FLAG 768 5824 0
FLAG -208 5536 3.3V
FLAG -208 5888 0
FLAG 1024 5632 OUT2-
FLAG 1024 5744 OUT2+
FLAG -32 5680 OUT1-
FLAG -48 5744 OUT1+
FLAG 112 5568 0
FLAG 112 5472 Out_BP1_Diff_Value
SYMBOL res -1856 5664 R90
WINDOW 0 0 56 VBottom 2
WINDOW 3 32 56 VTop 2
SYMATTR InstName R37
SYMATTR Value 5k
SYMBOL res -1856 5760 R90
WINDOW 0 0 56 VBottom 2
WINDOW 3 32 56 VTop 2
SYMATTR InstName R38
SYMATTR Value 5k
SYMBOL bv -2176 5472 R0
SYMATTR InstName B3
SYMATTR Value V=V(IN_p,IN_n)
SYMBOL voltage 592 6368 R0
WINDOW 123 0 0 Left 2
SYMATTR InstName Vcc4
SYMATTR Value 3.3
SYMBOL res 768 6368 R0
SYMATTR InstName R2
SYMATTR Value 1k
SYMBOL res 768 6496 R0
SYMATTR InstName R8
SYMATTR Value 1k
SYMBOL bv -1568 5424 R0
SYMATTR InstName B6
SYMATTR Value V=V(IN_p3,IN_n3)
SYMBOL bv -1008 5440 R0
SYMATTR InstName B7
SYMATTR Value V=V(IN_p2,IN_n2)
SYMBOL voltage -2496 5680 R0
WINDOW 123 47 46 Left 2
WINDOW 39 0 0 Left 0
WINDOW 3 -84 183 Left 2
WINDOW 0 47 13 Left 2
SYMATTR Value2 AC 10u
SYMATTR Value SINE(0 1000 120k)
SYMATTR InstName V1
SYMBOL cap -1232 5808 R0
SYMATTR InstName C12
SYMATTR Value 12p
SYMBOL cap -1344 5808 R0
SYMATTR InstName C14
SYMATTR Value 12p
SYMBOL bv 1072 5344 R0
SYMATTR InstName B9
SYMATTR Value V=V(OUT2-,OUT2+)
SYMBOL res 160 6096 R180
WINDOW 0 -63 70 Left 2
WINDOW 3 -55 42 Left 2
SYMATTR InstName RG10
SYMATTR Value 1k
SYMBOL res 160 6208 R180
WINDOW 0 -63 70 Left 2
WINDOW 3 -56 43 Left 2
SYMATTR InstName RG15
SYMATTR Value 1k
SYMBOL res 1104 5936 R180
WINDOW 0 -63 70 Left 2
WINDOW 3 -44 38 Left 2
SYMATTR InstName RG16
SYMATTR Value 1k
SYMBOL res 1104 6048 R180
WINDOW 0 -63 70 Left 2
WINDOW 3 -46 41 Left 2
SYMATTR InstName RG17
SYMATTR Value 1k
SYMBOL cap -1728 5664 R90
WINDOW 0 0 32 VBottom 2
WINDOW 3 -56 -47 VTop 2
SYMATTR InstName C1
SYMATTR Value 0.1µ
SYMBOL cap -1728 5760 R90
WINDOW 0 0 32 VBottom 2
WINDOW 3 32 -54 VTop 2
SYMATTR InstName C10
SYMATTR Value 0.1µ
SYMBOL res 304 5760 R90
WINDOW 0 65 57 VBottom 2
WINDOW 3 65 58 VTop 2
SYMATTR InstName RG19
SYMATTR Value {RIN_2}
SYMBOL res 912 5968 R90
WINDOW 0 10 118 VBottom 2
WINDOW 3 39 130 VTop 2
SYMATTR InstName RF5
SYMATTR Value {R_FEEDBACK_2}
SYMBOL res 304 5664 R90
WINDOW 0 -26 54 VBottom 2
WINDOW 3 -28 55 VTop 2
SYMATTR InstName RG20
SYMATTR Value {RIN_2}
SYMBOL res 912 5440 R90
WINDOW 0 56 54 VBottom 2
WINDOW 3 -33 127 VTop 2
SYMATTR InstName RF6
SYMATTR Value {R_FEEDBACK_2}
SYMBOL cap 512 5664 R90
WINDOW 0 0 32 VBottom 2
WINDOW 3 32 32 VTop 2
SYMATTR InstName C17
SYMATTR Value {C2}
SYMBOL cap 512 5760 R90
WINDOW 0 0 32 VBottom 2
WINDOW 3 32 32 VTop 2
SYMATTR InstName C18
SYMATTR Value {C2}
SYMBOL cap 512 5376 R90
WINDOW 0 0 32 VBottom 2
WINDOW 3 32 32 VTop 2
SYMATTR InstName C19
SYMATTR Value 330p
SYMBOL cap 512 6032 R90
WINDOW 0 0 32 VBottom 2
WINDOW 3 32 32 VTop 2
SYMATTR InstName C20
SYMATTR Value 330p
SYMBOL res 352 5792 R180
WINDOW 0 36 76 Left 2
WINDOW 3 102 74 Left 2
SYMATTR InstName RG21
SYMATTR Value {R_GAIN_2}
SYMBOL res -640 5760 R90
WINDOW 0 65 57 VBottom 2
WINDOW 3 65 58 VTop 2
SYMATTR InstName RG22
SYMATTR Value {RIN_1}
SYMBOL res -32 5968 R90
WINDOW 0 0 56 VBottom 2
WINDOW 3 30 135 VTop 2
SYMATTR InstName RF7
SYMATTR Value {R_FEEDBACK_1}
SYMBOL res -640 5664 R90
WINDOW 0 -26 54 VBottom 2
WINDOW 3 -28 55 VTop 2
SYMATTR InstName RG23
SYMATTR Value {RIN_1}
SYMBOL res -32 5440 R90
WINDOW 0 63 57 VBottom 2
WINDOW 3 -35 130 VTop 2
SYMATTR InstName RF8
SYMATTR Value {R_FEEDBACK_1}
SYMBOL AD8137 -208 5712 R0
SYMATTR InstName U5
SYMBOL cap -432 5664 R90
WINDOW 0 0 32 VBottom 2
WINDOW 3 32 32 VTop 2
SYMATTR InstName C25
SYMATTR Value {C1}
SYMBOL cap -432 5760 R90
WINDOW 0 0 32 VBottom 2
WINDOW 3 32 32 VTop 2
SYMATTR InstName C26
SYMATTR Value {C1}
SYMBOL cap -432 5376 R90
WINDOW 0 16 0 VBottom 2
WINDOW 3 -40 -52 VTop 2
SYMATTR InstName C27
SYMATTR Value 220p
SYMBOL cap -432 6032 R90
WINDOW 0 46 -2 VBottom 2
WINDOW 3 48 -55 VTop 2
SYMATTR InstName C28
SYMATTR Value 220p
SYMBOL res -592 5792 R180
WINDOW 0 36 76 Left 2
WINDOW 3 39 55 Left 2
SYMATTR InstName RG24
SYMATTR Value {R_GAIN_1}
SYMBOL AD8137 768 5712 R0
SYMATTR InstName U6
SYMBOL bv 112 5472 R0
SYMATTR InstName B2
SYMATTR Value V=V(OUT1-,OUT1+)
SYMBOL res -1424 5600 R90
WINDOW 0 0 56 VBottom 2
WINDOW 3 32 56 VTop 2
SYMATTR InstName R1
SYMATTR Value 1Meg
SYMBOL res -1424 5920 R90
WINDOW 0 0 56 VBottom 2
WINDOW 3 32 56 VTop 2
SYMATTR InstName R3
SYMATTR Value 1Meg
TEXT -1168 4456 Left 2 !;tran 1m
TEXT -1160 4408 Left 2 !;ac dec 100 1k 750k
TEXT -2456 4672 Left 2 !.PARAM k12_2   0.000001
TEXT -2456 4712 Left 2 !.PARAM M12_2 {{k12_2}*(sqrt({L1s_2}*{L2s_2})*({N1_2}/{N2_2}))}
TEXT -2456 4744 Left 2 !.PARAM M21_2 {{k12_2}*(sqrt({L1s_2}*{L2s_2})*({N2_2}/{N1_2}))}
TEXT -2456 4624 Left 2 !.PARAM L1s_2 36u
TEXT -2456 4648 Left 2 !.PARAM L2s_2 1.7u
TEXT -2456 4568 Left 2 !.PARAM N1_2 1
TEXT -2456 4592 Left 2 !.PARAM N2_2 1
TEXT -2456 4784 Left 2 !.PARAM L1l_2 {{L1s_2}-{M12_2}}
TEXT -2456 4816 Left 2 !.PARAM L2l_2 {{L2s_2}-{M21_2}}
TEXT -1168 4512 Left 2 !.param C_HP1 {270p}
TEXT -1168 4552 Left 2 !.param C_LP1 {10p}
TEXT -2088 4632 Left 2 ;.step param k12_2  0.000001 0.004 0.0005
TEXT -2088 4664 Left 2 ;.step param k12_2 0.000002 0.05 0.049998
TEXT -752 4408 Left 2 !.param tol_C=0.01 ;   +/-1% capacitor component tolerance
TEXT -752 4448 Left 2 !.param tol_R=0.001 ;   +/-0.1% resistor component tolerance
TEXT -3168 5960 Left 2 !.PARAM I_AMP_120kHz_week 260m
TEXT -3168 5928 Left 2 !.PARAM I_AMP_85kHz_week {I_AMP_120kHz_week*40}
TEXT -744 4488 Left 2 ;.step param X 0 1 1 ; a dummy parameter to cycle Monte Carlo runs
TEXT -488 5256 Left 2 ;.noise V(Out_BP_Diff_Value) V1 dec 100 1k 1Meg
TEXT -568 5080 Left 2 !.param R_FEEDBACK_1 12k*ScaleFactor
TEXT 136 5048 Left 2 !.param RIN_2 2.2k*ScaleFactor
TEXT -568 5048 Left 2 !.param RIN_1 2.2k*ScaleFactor
TEXT 136 5016 Left 2 !.param C2 820p/ScaleFactor
TEXT -568 5016 Left 2 !.param C1 820p/ScaleFactor
TEXT 136 5080 Left 2 !.param R_FEEDBACK_2 12k*ScaleFactor
TEXT -568 5112 Left 2 !.param R_GAIN_1 1k*ScaleFactor
TEXT 136 5112 Left 2 !.param R_GAIN_2 1.5k*ScaleFactor
TEXT -168 4960 Left 2 !.param ScaleFactor 1
TEXT -480 5296 Left 2 !.noise V(Out_BP2_Diff_Value) V1 dec 100 1k 1Meg
TEXT -480 5216 Left 2 ;.ac dec 100 1k 750k
TEXT -376 4904 Left 2 ;.step param ScaleFactor 0.1 1 0.9 ; stepping through the scale factor
TEXT -376 4872 Left 2 ;.step param Factor 0.1 1 0.1
